/*---------------------------------------------------------------------------*\
  =========                 |
  \\      /  F ield         | OpenFOAM: The Open Source CFD Toolbox
   \\    /   O peration     | Website:  https://openfoam.org
    \\  /    A nd           | Version:  9
     \\/     M anipulation  |
\*---------------------------------------------------------------------------*/
Build  : 9-c96968adf6d8
Exec   : blockMesh
Date   : Oct 12 2022
Time   : 13:16:56
Host   : "clove-ZenBook-UX535LI-UX535LI"
PID    : 21097
I/O    : uncollated
Case   : /home/clove/rheoTool/of90/custom_models/sphere_con/Oldroyd-BLog
nProcs : 1
sigFpe : Enabling floating point exception trapping (FOAM_SIGFPE).
fileModificationChecking : Monitoring run-time modified files using timeStampMaster (fileModificationSkew 10)
allowSystemOperations : Allowing user-supplied system call operations

// * * * * * * * * * * * * * * * * * * * * * * * * * * * * * * * * * * * * * //
Create time

Reading "blockMeshDict"

Creating block mesh from
    "system/blockMeshDict"
Creating block edges
No non-planar block faces defined
Creating topology blocks
Creating topology patches

Creating block mesh topology
--> FOAM Warning : 
    From function virtual void Foam::wedgePolyPatch::calcGeometry(Foam::PstreamBuffers&)
    in file meshes/polyMesh/polyPatches/constraint/wedge/wedgePolyPatch.C at line 70
    Wedge patch 'front' is not planar.
At local face at (-0.0559829545454545 0.00494318181818182 0.000210085227272727) the normal (0 -0.0424616691060739 0.999098096613504) differs from the average normal (-1.61001234689474e-18 -0.042461686002636 0.999098095895398) by 2.86009485975905e-16
Either correct the patch or split it into planar parts
--> FOAM Warning : 
    From function virtual void Foam::wedgePolyPatch::calcGeometry(Foam::PstreamBuffers&)
    in file meshes/polyMesh/polyPatches/constraint/wedge/wedgePolyPatch.C at line 70
    Wedge patch 'front' is not planar.
At local face at (-0.0077148148622216 0.00664749999848318 0.000282518749935535) the normal (-2.99250126296944e-18 -0.0424616691060739 0.999098096613504) differs from the average normal (-1.61001234689474e-18 -0.042461686002636 0.999098095895398) by 2.86009485816453e-16
Either correct the patch or split it into planar parts
--> FOAM Warning : 
    From function virtual void Foam::wedgePolyPatch::calcGeometry(Foam::PstreamBuffers&)
    in file meshes/polyMesh/polyPatches/constraint/wedge/wedgePolyPatch.C at line 70
    Wedge patch 'front' is not planar.
At local face at (-0.00402083333333333 0.00401720693013346 0.000170731294530672) the normal (-1.48892510259545e-17 -0.0424616691060739 0.999098096613504) differs from the average normal (-1.61001234689474e-18 -0.042461686002636 0.999098095895398) by 2.86009486210392e-16
Either correct the patch or split it into planar parts
--> FOAM Warning : 
    From function virtual void Foam::wedgePolyPatch::calcGeometry(Foam::PstreamBuffers&)
    in file meshes/polyMesh/polyPatches/constraint/wedge/wedgePolyPatch.C at line 70
    Wedge patch 'front' is not planar.
At local face at (-0.00302777763675996 0.00302504704963035 0.000128564422873176) the normal (9.47061639286403e-08 -0.0424617366923223 0.999098093741081) differs from the average normal (-1.61001234689474e-18 -0.042461686002636 0.999098095895398) by 1.15433428641623e-14
Either correct the patch or split it into planar parts
--> FOAM Warning : 
    From function virtual void Foam::wedgePolyPatch::calcGeometry(Foam::PstreamBuffers&)
    in file meshes/polyMesh/polyPatches/constraint/wedge/wedgePolyPatch.C at line 70
    Wedge patch 'front' is not planar.
At local face at (0.00302777763675996 0.00302504704963035 0.000128564422873176) the normal (-9.47061639308462e-08 -0.0424617366923223 0.999098093741081) differs from the average normal (-1.61001234689474e-18 -0.042461686002636 0.999098095895398) by 1.15433428632667e-14
Either correct the patch or split it into planar parts
--> FOAM Warning : 
    From function virtual void Foam::wedgePolyPatch::calcGeometry(Foam::PstreamBuffers&)
    in file meshes/polyMesh/polyPatches/constraint/wedge/wedgePolyPatch.C at line 70
    Wedge patch 'front' is not planar.
At local face at (0.00402083333333333 0.00401720693013346 0.000170731294530672) the normal (4.96308367531817e-18 -0.0424616691060739 0.999098096613504) differs from the average normal (-1.61001234689474e-18 -0.042461686002636 0.999098095895398) by 2.86009486210392e-16
Either correct the patch or split it into planar parts
--> FOAM Warning : 
    From function virtual void Foam::wedgePolyPatch::calcGeometry(Foam::PstreamBuffers&)
    in file meshes/polyMesh/polyPatches/constraint/wedge/wedgePolyPatch.C at line 70
    Wedge patch 'front' is not planar.
At local face at (0.0077148148622216 0.00664749999848318 0.000282518749935535) the normal (2.24437594722708e-18 -0.0424616691060739 0.999098096613504) differs from the average normal (-1.61001234689474e-18 -0.042461686002636 0.999098095895398) by 2.8600948605094e-16
Either correct the patch or split it into planar parts
--> FOAM Warning : 
    From function virtual void Foam::wedgePolyPatch::calcGeometry(Foam::PstreamBuffers&)
    in file meshes/polyMesh/polyPatches/constraint/wedge/wedgePolyPatch.C at line 70
    Wedge patch 'front' is not planar.
At local face at (0.0559829545454545 0.00494318181818182 0.000210085227272727) the normal (0 -0.0424616691060739 0.999098096613504) differs from the average normal (-1.61001234689474e-18 -0.042461686002636 0.999098095895398) by 2.86009485975905e-16
Either correct the patch or split it into planar parts
--> FOAM Warning : 
    From function virtual void Foam::wedgePolyPatch::calcGeometry(Foam::PstreamBuffers&)
    in file meshes/polyMesh/polyPatches/constraint/wedge/wedgePolyPatch.C at line 70
    Wedge patch 'back' is not planar.
At local face at (-0.0559829545454545 0.00494318181818182 -0.000210085227272727) the normal (0 -0.0424616691060739 -0.999098096613504) differs from the average normal (1.48532521691574e-18 -0.042461686002636 -0.999098095895398) by 2.86009486210392e-16
Either correct the patch or split it into planar parts
--> FOAM Warning : 
    From function virtual void Foam::wedgePolyPatch::calcGeometry(Foam::PstreamBuffers&)
    in file meshes/polyMesh/polyPatches/constraint/wedge/wedgePolyPatch.C at line 70
    Wedge patch 'back' is not planar.
At local face at (-0.0077148148622216 0.00664749999848318 -0.000282518749935535) the normal (-3.24187636821689e-18 -0.0424616691060739 -0.999098096613504) differs from the average normal (1.48532521691574e-18 -0.042461686002636 -0.999098095895398) by 2.86009486285427e-16
Either correct the patch or split it into planar parts
--> FOAM Warning : 
    From function virtual void Foam::wedgePolyPatch::calcGeometry(Foam::PstreamBuffers&)
    in file meshes/polyMesh/polyPatches/constraint/wedge/wedgePolyPatch.C at line 70
    Wedge patch 'back' is not planar.
At local face at (-0.00402083333333333 0.00401720693013346 -0.000170731294530672) the normal (-4.96308367531817e-18 -0.0424616691060739 -0.999098096613504) differs from the average normal (1.48532521691574e-18 -0.042461686002636 -0.999098095895398) by 2.86009485975905e-16
Either correct the patch or split it into planar parts
--> FOAM Warning : 
    From function virtual void Foam::wedgePolyPatch::calcGeometry(Foam::PstreamBuffers&)
    in file meshes/polyMesh/polyPatches/constraint/wedge/wedgePolyPatch.C at line 70
    Wedge patch 'back' is not planar.
At local face at (-0.00302777763675996 0.00302504704963035 -0.000128564422873176) the normal (9.47061639308462e-08 -0.0424617366923223 -0.999098093741081) differs from the average normal (1.48532521691574e-18 -0.042461686002636 -0.999098095895398) by 1.15433428639938e-14
Either correct the patch or split it into planar parts
--> FOAM Warning : 
    From function virtual void Foam::wedgePolyPatch::calcGeometry(Foam::PstreamBuffers&)
    in file meshes/polyMesh/polyPatches/constraint/wedge/wedgePolyPatch.C at line 70
    Wedge patch 'back' is not planar.
At local face at (0.00302777763675996 0.00302504704963035 -0.000128564422873176) the normal (-9.47061639286403e-08 -0.0424617366923223 -0.999098093741081) differs from the average normal (1.48532521691574e-18 -0.042461686002636 -0.999098095895398) by 1.15433428641386e-14
Either correct the patch or split it into planar parts
--> FOAM Warning : 
    From function virtual void Foam::wedgePolyPatch::calcGeometry(Foam::PstreamBuffers&)
    in file meshes/polyMesh/polyPatches/constraint/wedge/wedgePolyPatch.C at line 70
    Wedge patch 'back' is not planar.
At local face at (0.00402083333333333 0.00401720693013346 -0.000170731294530672) the normal (1.48892510259545e-17 -0.0424616691060739 -0.999098096613504) differs from the average normal (1.48532521691574e-18 -0.042461686002636 -0.999098095895398) by 2.86009486210392e-16
Either correct the patch or split it into planar parts
--> FOAM Warning : 
    From function virtual void Foam::wedgePolyPatch::calcGeometry(Foam::PstreamBuffers&)
    in file meshes/polyMesh/polyPatches/constraint/wedge/wedgePolyPatch.C at line 70
    Wedge patch 'back' is not planar.
At local face at (0.00771481486222159 0.00664749999848318 -0.000282518749935535) the normal (2.99250126296944e-18 -0.0424616691060739 -0.999098096613504) differs from the average normal (1.48532521691574e-18 -0.042461686002636 -0.999098095895398) by 2.86009485816453e-16
Either correct the patch or split it into planar parts
--> FOAM Warning : 
    From function virtual void Foam::wedgePolyPatch::calcGeometry(Foam::PstreamBuffers&)
    in file meshes/polyMesh/polyPatches/constraint/wedge/wedgePolyPatch.C at line 70
    Wedge patch 'back' is not planar.
At local face at (0.0559829545454545 0.00494318181818182 -0.000210085227272727) the normal (0 -0.0424616691060739 -0.999098096613504) differs from the average normal (1.48532521691574e-18 -0.042461686002636 -0.999098095895398) by 2.86009486210392e-16
Either correct the patch or split it into planar parts

Check topology

	Basic statistics
		Number of internal faces : 9
		Number of boundary faces : 30
		Number of defined boundary faces : 30
		Number of undefined boundary faces : 0
	Checking patch -> block consistency

Creating block offsets
Creating merge list .

Creating polyMesh from blockMesh
Creating patches
Creating cells
Creating points with scale 1
    Block 0 cell size :
        i : 0.000250225679387628 .. 0.000250225679387628 0.000250225679387628 .. 0.000250225679387628 0.000253504924812276 .. 0.000253504924812278 0.000253504924812276 .. 0.000253504924812278 
        j : 0 2.125e-05 0 2.125e-05 
        k : 0.0246567744552156 .. 6.16419361380398e-05 0.0246161314203993 .. 6.15403285509995e-05 0.0246567744552156 .. 6.16419361380398e-05 0.0246161314203994 .. 6.15403285509995e-05 
    Block 1 cell size :
        i : 0.000291741136326368 .. 0.000291741136326369 0.000291741136326368 .. 0.000291741136326367 0.000281893318235524 .. 0.000281893318235526 0.000281893318235524 .. 0.000281893318235526 
        j : 0 2.125e-05 2.40075586502296e-05 4.46573696839739e-05 
        k : 0.000282731711612772 .. 0.000282731711612772 0.000275883162713392 .. 0.000283162518071411 0.000282731711612772 .. 0.000282731711612772 0.000275883162713391 .. 0.000283162518071411 
    Block 2 cell size :
        i : 0.000282731711612772 .. 0.000282731711612772 0.000282731711612772 .. 0.000282731711612772 0.000279253475572629 .. 0.00027925347557263 0.000279253475572629 .. 0.00027925347557263 
        j : 0 2.40075586502296e-05 0 2.37122116753299e-05 
        k : 0.000110720244937218 .. 5.53601224686081e-05
    Block 3 cell size :
        i : 0.000219902442365489 .. 0.00021990244236549 0.000219902442365489 .. 0.00021990244236549 0.000217389271437789 .. 0.000217389271437789 0.000217389271437789 .. 0.000217389271437789 
        j : 0 1.86725456168453e-05 0 1.84591476486838e-05 
        k : 8.00000000000002e-05
    Block 4 cell size :
        i : 0.000157073169172992 .. 0.000157073169172992 0.000157073169172992 .. 0.000157073169172992 0.000159586340100691 .. 0.000159586340100692 0.000159586340100691 .. 0.000159586340100692 
        j : 0 1.3337596412809e-05 0 1.35509943809705e-05 
        k : 8.00000000000002e-05
    Block 5 cell size :
        i : 0.000219902442365489 .. 0.00021990244236549 0.000219902442365489 .. 0.00021990244236549 0.000221641560385561 .. 0.000221641560385561 0.000221641560385561 .. 0.000221641560385561 
        j : 0 1.86725456168453e-05 0 1.88202191042952e-05 
        k : 5.53601224686081e-05 .. 0.000110720244937218
    Block 6 cell size :
        i : 2.52256793876287e-05 2.52256793876287e-05 .. 2.52256793876287e-05 2.5340395797095e-05 2.5340395797095e-05 .. 2.53403957970933e-05 
        j : 0.00076431004390933 0.000766452292811597 0.000763932903040796 0.000766084580464776 
        k : 0.000282731711612772 .. 0.000282731711612772 0.000283162518071411 .. 0.000275883162713391 0.000282731711612772 .. 0.000282731711612772 0.000283162518071411 .. 0.000275883162713391 
    Block 7 cell size :
        i : 0.000291741136326368 .. 0.000291741136326369 0.000291741136326368 .. 0.000291741136326367 0.000291688907353348 .. 0.000291688907353347 0.000291688907353348 .. 0.000291688907353347 
        j : 0 2.125e-05 0 2.125e-05 
        k : 6.1641936138038e-05 .. 0.0246567744552156 6.15403285509977e-05 .. 0.0246161314203993 6.1641936138038e-05 .. 0.0246567744552156 6.15403285509977e-05 .. 0.0246161314203994 
--> FOAM Warning : 
    From function virtual void Foam::wedgePolyPatch::calcGeometry(Foam::PstreamBuffers&)
    in file meshes/polyMesh/polyPatches/constraint/wedge/wedgePolyPatch.C at line 70
    Wedge patch 'front' is not planar.
At local face at (-0.00687838006810174 0.000107956774013674 4.58816385904055e-06) the normal (-8.16677426453566e-09 -0.0424616778841164 0.999098096240437) differs from the average normal (-1.14842112116113e-19 -0.0424616607547165 0.999098096968515) by 3.60642638017943e-16
Either correct the patch or split it into planar parts
--> FOAM Warning : 
    From function virtual void Foam::wedgePolyPatch::calcGeometry(Foam::PstreamBuffers&)
    in file meshes/polyMesh/polyPatches/constraint/wedge/wedgePolyPatch.C at line 70
    Wedge patch 'front' is not planar.
At local face at (-0.00679840071757735 0.000106701491035437 4.53481497517961e-06) the normal (-8.26285397355437e-09 -0.0424616839947207 0.999098095980736) differs from the average normal (-1.14842112116113e-19 -0.0424616607547165 0.999098096968515) by 6.09348253816644e-16
Either correct the patch or split it into planar parts
--> FOAM Warning : 
    From function virtual void Foam::wedgePolyPatch::calcGeometry(Foam::PstreamBuffers&)
    in file meshes/polyMesh/polyPatches/constraint/wedge/wedgePolyPatch.C at line 70
    Wedge patch 'front' is not planar.
At local face at (-0.00671842138876172 0.000105446208397921 4.48146610579916e-06) the normal (-8.36122127408106e-09 -0.0424616902508155 0.999098095714852) differs from the average normal (-1.14842112116113e-19 -0.0424616607547165 0.999098096968515) by 9.4150154577825e-16
Either correct the patch or split it into planar parts
--> FOAM Warning : 
    From function virtual void Foam::wedgePolyPatch::calcGeometry(Foam::PstreamBuffers&)
    in file meshes/polyMesh/polyPatches/constraint/wedge/wedgePolyPatch.C at line 70
    Wedge patch 'front' is not planar.
At local face at (-0.0066384420824395 0.000104190926113441 4.42811725142251e-06) the normal (-8.46195889851635e-09 -0.0424616966576597 0.999098095442561) differs from the average normal (-1.14842112116113e-19 -0.0424616607547165 0.999098096968515) by 1.36295460781279e-15
Either correct the patch or split it into planar parts
--> FOAM Warning : 
    From function virtual void Foam::wedgePolyPatch::calcGeometry(Foam::PstreamBuffers&)
    in file meshes/polyMesh/polyPatches/constraint/wedge/wedgePolyPatch.C at line 70
    Wedge patch 'front' is not planar.
At local face at (-0.00655846279943363 0.000102935644194913 4.37476841259867e-06) the normal (-8.56515351575546e-09 -0.0424617032207683 0.999098095163629) differs from the average normal (-1.14842112116113e-19 -0.0424616607547165 0.999098096968515) by 1.87998502141126e-15
Either correct the patch or split it into planar parts
--> FOAM Warning : 
    From function virtual void Foam::wedgePolyPatch::calcGeometry(Foam::PstreamBuffers&)
    in file meshes/polyMesh/polyPatches/constraint/wedge/wedgePolyPatch.C at line 70
    Wedge patch 'front' is not planar.
At local face at (-0.00647848354060766 0.00010168036265589 4.32141958990361e-06) the normal (-8.67089617881837e-09 -0.042461709945929 0.999098094877809) differs from the average normal (-1.14842112116113e-19 -0.0424616607547165 0.999098096968515) by 2.49933087737841e-15
Either correct the patch or split it into planar parts
--> FOAM Warning : 
    From function virtual void Foam::wedgePolyPatch::calcGeometry(Foam::PstreamBuffers&)
    in file meshes/polyMesh/polyPatches/constraint/wedge/wedgePolyPatch.C at line 70
    Wedge patch 'front' is not planar.
At local face at (-0.00639850430686836 0.000100425081510606 4.26807078394221e-06) the normal (-8.77928237528726e-09 -0.0424617168392188 0.999098094584844) differs from the average normal (-1.14842112116113e-19 -0.0424616607547165 0.999098096968515) by 3.22822907698429e-15
Either correct the patch or split it into planar parts
--> FOAM Warning : 
    From function virtual void Foam::wedgePolyPatch::calcGeometry(Foam::PstreamBuffers&)
    in file meshes/polyMesh/polyPatches/constraint/wedge/wedgePolyPatch.C at line 70
    Wedge patch 'front' is not planar.
At local face at (-0.00631852509916836 9.91698007740099e-05 4.21472199534989e-06) the normal (-8.89041254658311e-09 -0.0424617239070222 0.999098094284462) differs from the average normal (-1.14842112116113e-19 -0.0424616607547165 0.999098096968515) by 4.07445728524527e-15
Either correct the patch or split it into planar parts
--> FOAM Warning : 
    From function virtual void Foam::wedgePolyPatch::calcGeometry(Foam::PstreamBuffers&)
    in file meshes/polyMesh/polyPatches/constraint/wedge/wedgePolyPatch.C at line 70
    Wedge patch 'front' is not planar.
At local face at (-0.0062385459185092 9.79145204618222e-05 4.16137322479469e-06) the normal (-9.00439218348073e-09 -0.0424617311560514 0.999098093976378) differs from the average normal (-1.14842112116113e-19 -0.0424616607547165 0.999098096968515) by 5.04637990669807e-15
Either correct the patch or split it into planar parts
--> FOAM Warning : 
    From function virtual void Foam::wedgePolyPatch::calcGeometry(Foam::PstreamBuffers&)
    in file meshes/polyMesh/polyPatches/constraint/wedge/wedgePolyPatch.C at line 70
    Wedge patch 'front' is not planar.
At local face at (-0.00615856676594441 9.66592405905789e-05 4.10802447297939e-06) the normal (-9.12133236737774e-09 -0.042461738593367 0.999098093660291) differs from the average normal (-1.14842112116113e-19 -0.0424616607547165 0.999098096968515) by 6.15299855073755e-15
Either correct the patch or split it into planar parts
--> FOAM Warning : 
    From function virtual void Foam::wedgePolyPatch::calcGeometry(Foam::PstreamBuffers&)
    in file meshes/polyMesh/polyPatches/constraint/wedge/wedgePolyPatch.C at line 70
    Wedge patch 'front' is not planar.
At local face at (-0.00607858764258296 9.54039611776842e-05 4.05467574064368e-06) the normal (-9.24134990741545e-09 -0.0424617462264015 0.999098093335887) differs from the average normal (-1.14842112116113e-19 -0.0424616607547165 0.999098096968515) by 7.4040074618289e-15
Either correct the patch or split it into planar parts
--> FOAM Warning : 
    From function virtual void Foam::wedgePolyPatch::calcGeometry(Foam::PstreamBuffers&)
    in file meshes/polyMesh/polyPatches/constraint/wedge/wedgePolyPatch.C at line 70
    Wedge patch 'front' is not planar.
At local face at (-0.00599860854959301 9.41486822414724e-05 4.00132702856675e-06) the normal (-9.36456791322545e-09 -0.0424617540629836 0.999098093002831) differs from the average normal (-1.14842112116113e-19 -0.0424616607547165 0.999098096968515) by 8.80985447300839e-15
Either correct the patch or split it into planar parts
--> FOAM Warning : 
    From function virtual void Foam::wedgePolyPatch::calcGeometry(Foam::PstreamBuffers&)
    in file meshes/polyMesh/polyPatches/constraint/wedge/wedgePolyPatch.C at line 70
    Wedge patch 'front' is not planar.
At local face at (-0.00591862948820583 9.28934038012696e-05 3.94797833756994e-06) the normal (-9.49111612539279e-09 -0.0424617621113652 0.999098092660775) differs from the average normal (-1.14842112116113e-19 -0.0424616607547165 0.999098096968515) by 1.0381808135326e-14
Either correct the patch or split it into planar parts
--> FOAM Warning : 
    From function virtual void Foam::wedgePolyPatch::calcGeometry(Foam::PstreamBuffers&)
    in file meshes/polyMesh/polyPatches/constraint/wedge/wedgePolyPatch.C at line 70
    Wedge patch 'front' is not planar.
At local face at (-0.00583865045972015 9.16381258774583e-05 3.89462966851951e-06) the normal (-9.62113143695262e-09 -0.0424617703802504 0.999098092309346) differs from the average normal (-1.14842112116113e-19 -0.0424616607547165 0.999098096968515) by 1.21320316980985e-14
Either correct the patch or split it into planar parts
--> FOAM Warning : 
    From function virtual void Foam::wedgePolyPatch::calcGeometry(Foam::PstreamBuffers&)
    in file meshes/polyMesh/polyPatches/constraint/wedge/wedgePolyPatch.C at line 70
    Wedge patch 'front' is not planar.
At local face at (-0.00575867146550688 9.03828484915563e-05 3.84128102232995e-06) the normal (-9.75475827891356e-09 -0.0424617788788269 0.999098091948156) differs from the average normal (-1.14842112116113e-19 -0.0424616607547165 0.999098096968515) by 1.40736647678128e-14
Either correct the patch or split it into planar parts
--> FOAM Warning : 
    From function virtual void Foam::wedgePolyPatch::calcGeometry(Foam::PstreamBuffers&)
    in file meshes/polyMesh/polyPatches/constraint/wedge/wedgePolyPatch.C at line 70
    Wedge patch 'front' is not planar.
At local face at (-0.00567869250701415 8.91275716662902e-05 3.78793239996712e-06) the normal (-9.89214924233496e-09 -0.0424617876168 0.999098091576791) differs from the average normal (-1.14842112116113e-19 -0.0424616607547165 0.999098096968515) by 1.62209135144846e-14
Either correct the patch or split it into planar parts
--> FOAM Warning : 
    From function virtual void Foam::wedgePolyPatch::calcGeometry(Foam::PstreamBuffers&)
    in file meshes/polyMesh/polyPatches/constraint/wedge/wedgePolyPatch.C at line 70
    Wedge patch 'front' is not planar.
At local face at (-0.00559871358577283 8.78722954256888e-05 3.73458380245225e-06) the normal (-1.00334656737578e-08 -0.0424617966044294 0.999098091194816) differs from the average normal (-1.14842112116113e-19 -0.0424616607547165 0.999098096968515) by 1.85891505188156e-14
Either correct the patch or split it into planar parts
--> FOAM Warning : 
    From function virtual void Foam::wedgePolyPatch::calcGeometry(Foam::PstreamBuffers&)
    in file meshes/polyMesh/polyPatches/constraint/wedge/wedgePolyPatch.C at line 70
    Wedge patch 'front' is not planar.
At local face at (-0.00551873470340255 8.66170197951722e-05 3.68123523086567e-06) the normal (-1.01788782313916e-08 -0.0424618058525698 0.999098090801768) differs from the average normal (-1.14842112116113e-19 -0.0424616607547165 0.999098096968515) by 2.11950253592516e-14
Either correct the patch or split it into planar parts
--> FOAM Warning : 
    From function virtual void Foam::wedgePolyPatch::calcGeometry(Foam::PstreamBuffers&)
    in file meshes/polyMesh/polyPatches/constraint/wedge/wedgePolyPatch.C at line 70
    Wedge patch 'front' is not planar.
At local face at (-0.00543875586161822 8.53617448016546e-05 3.62788668635122e-06) the normal (-1.03285676237463e-08 -0.0424618153727144 0.999098090397161) differs from the average normal (-1.14842112116113e-19 -0.0424616607547165 0.999098096968515) by 2.40565872738711e-14
Either correct the patch or split it into planar parts
--> FOAM Warning : 
    From function virtual void Foam::wedgePolyPatch::calcGeometry(Foam::PstreamBuffers&)
    in file meshes/polyMesh/polyPatches/constraint/wedge/wedgePolyPatch.C at line 70
    Wedge patch 'front' is not planar.
At local face at (-0.00535877706223711 8.41064704736608e-05 3.57453817012119e-06) the normal (-1.04827253601367e-08 -0.0424618251770425 0.999098089980475) differs from the average normal (-1.14842112116113e-19 -0.0424616607547165 0.999098096968515) by 2.71934214872614e-14
Either correct the patch or split it into planar parts
--> FOAM Warning : 
    From function virtual void Foam::wedgePolyPatch::calcGeometry(Foam::PstreamBuffers&)
    in file meshes/polyMesh/polyPatches/constraint/wedge/wedgePolyPatch.C at line 70
    Wedge patch 'front' is not planar.
At local face at (-0.00527879830718664 8.28511968414389e-05 3.52118968346112e-06) the normal (-1.06415545491958e-08 -0.0424618352784714 0.999098089551163) differs from the average normal (-1.14842112116113e-19 -0.0424616607547165 0.999098096968515) by 3.06268007906137e-14
Either correct the patch or split it into planar parts
--> FOAM Warning : 
    From function virtual void Foam::wedgePolyPatch::calcGeometry(Foam::PstreamBuffers&)
    in file meshes/polyMesh/polyPatches/constraint/wedge/wedgePolyPatch.C at line 70
    Wedge patch 'front' is not planar.
At local face at (-0.00519881959851285 8.15959239371038e-05 3.46784122773585e-06) the normal (-1.08052707943487e-08 -0.0424618456907135 0.999098089108641) differs from the average normal (-1.14842112116113e-19 -0.0424616607547165 0.999098096968515) by 3.43798544642126e-14
Either correct the patch or split it into planar parts
--> FOAM Warning : 
    From function virtual void Foam::wedgePolyPatch::calcGeometry(Foam::PstreamBuffers&)
    in file meshes/polyMesh/polyPatches/constraint/wedge/wedgePolyPatch.C at line 70
    Wedge patch 'front' is not planar.
At local face at (-0.00511884093838964 8.03406517947745e-05 3.41449280439545e-06) the normal (-1.09741031587886e-08 -0.0424618564283382 0.99909808865229) differs from the average normal (-1.14842112116113e-19 -0.0424616607547165 0.999098096968515) by 3.84777567497619e-14
Either correct the patch or split it into planar parts
--> FOAM Warning : 
    From function virtual void Foam::wedgePolyPatch::calcGeometry(Foam::PstreamBuffers&)
    in file meshes/polyMesh/polyPatches/constraint/wedge/wedgePolyPatch.C at line 70
    Wedge patch 'front' is not planar.
At local face at (-0.00503886232912894 7.90853804507361e-05 3.361144414982e-06) the normal (-1.11482952825092e-08 -0.0424618675068399 0.999098088181452) differs from the average normal (-1.14842112116113e-19 -0.0424616607547165 0.999098096968515) by 4.29479374922097e-14
Either correct the patch or split it into planar parts
--> FOAM Warning : 
    From function virtual void Foam::wedgePolyPatch::calcGeometry(Foam::PstreamBuffers&)
    in file meshes/polyMesh/polyPatches/constraint/wedge/wedgePolyPatch.C at line 70
    Wedge patch 'front' is not planar.
At local face at (-0.00695149237903164 0.000327528392965741 1.39199576494723e-05) the normal (-2.38437598342696e-08 -0.0424616707937104 0.999098096541779) differs from the average normal (-1.14842112116113e-19 -0.0424616607547165 0.999098096968515) by 6.69488383612756e-16
Either correct the patch or split it into planar parts
--> FOAM Warning : 
    From function virtual void Foam::wedgePolyPatch::calcGeometry(Foam::PstreamBuffers&)
    in file meshes/polyMesh/polyPatches/constraint/wedge/wedgePolyPatch.C at line 70
    Wedge patch 'front' is not planar.
At local face at (-0.00687159193776671 0.000323763781861603 1.37599635780226e-05) the normal (-2.41131615886805e-08 -0.0424616765012086 0.99909809629921) differs from the average normal (-1.14842112116113e-19 -0.0424616607547165 0.999098096968515) by 8.29844541754436e-16
Either correct the patch or split it into planar parts
--> FOAM Warning : 
    From function virtual void Foam::wedgePolyPatch::calcGeometry(Foam::PstreamBuffers&)
    in file meshes/polyMesh/polyPatches/constraint/wedge/wedgePolyPatch.C at line 70
    Wedge patch 'front' is not planar.
At local face at (-0.00679169151744129 0.000319999171744057 1.35999695485026e-05) the normal (-2.43889022966657e-08 -0.0424616823430009 0.999098096050934) differs from the average normal (-1.14842112116113e-19 -0.0424616607547165 0.999098096968515) by 1.0617145292054e-15
Either correct the patch or split it into planar parts
--> FOAM Warning : 
    From function virtual void Foam::wedgePolyPatch::calcGeometry(Foam::PstreamBuffers&)
    in file meshes/polyMesh/polyPatches/constraint/wedge/wedgePolyPatch.C at line 70
    Wedge patch 'front' is not planar.
At local face at (-0.0067117911188032 0.000316234562648338 1.34399755624097e-05) the normal (-2.46712081408225e-08 -0.0424616883238835 0.999098095796746) differs from the average normal (-1.14842112116113e-19 -0.0424616607547165 0.999098096968515) by 1.37010051667634e-15
Either correct the patch or split it into planar parts
--> FOAM Warning : 
    From function virtual void Foam::wedgePolyPatch::calcGeometry(Foam::PstreamBuffers&)
    in file meshes/polyMesh/polyPatches/constraint/wedge/wedgePolyPatch.C at line 70
    Wedge patch 'front' is not planar.
At local face at (-0.00663189074263632 0.000312469954611379 1.32799816213136e-05) the normal (-2.49603166274896e-08 -0.0424616944488837 0.999098095536434) differs from the average normal (-1.14842112116113e-19 -0.0424616607547165 0.999098096968515) by 1.76036516354641e-15
Either correct the patch or split it into planar parts
--> FOAM Warning : 
    From function virtual void Foam::wedgePolyPatch::calcGeometry(Foam::PstreamBuffers&)
    in file meshes/polyMesh/polyPatches/constraint/wedge/wedgePolyPatch.C at line 70
    Wedge patch 'front' is not planar.
At local face at (-0.00655199038976277 0.000308705347671913 1.31199877268605e-05) the normal (-2.52564764541512e-08 -0.0424617007232742 0.999098095269772) differs from the average normal (-1.14842112116113e-19 -0.0424616607547165 0.999098096968515) by 2.23826093385096e-15
Either correct the patch or split it into planar parts
--> FOAM Warning : 
    From function virtual void Foam::wedgePolyPatch::calcGeometry(Foam::PstreamBuffers&)
    in file meshes/polyMesh/polyPatches/constraint/wedge/wedgePolyPatch.C at line 70
    Wedge patch 'front' is not planar.
At local face at (-0.00647209006104527 0.000304940741870592 1.29599938807778e-05) the normal (-2.55599489612e-08 -0.042461707152588 0.999098094996526) differs from the average normal (-1.14842112116113e-19 -0.0424616607547165 0.999098096968515) by 2.80996220428532e-15
Either correct the patch or split it into planar parts
--> FOAM Warning : 
    From function virtual void Foam::wedgePolyPatch::calcGeometry(Foam::PstreamBuffers&)
    in file meshes/polyMesh/polyPatches/constraint/wedge/wedgePolyPatch.C at line 70
    Wedge patch 'front' is not planar.
At local face at (-0.00639218975738968 0.000301176137250093 1.28000000848796e-05) the normal (-2.58710082231797e-08 -0.0424617137426346 0.999098094716449) differs from the average normal (-1.14842112116113e-19 -0.0424616607547165 0.999098096968515) by 3.48210032580081e-15
Either correct the patch or split it into planar parts
--> FOAM Warning : 
    From function virtual void Foam::wedgePolyPatch::calcGeometry(Foam::PstreamBuffers&)
    in file meshes/polyMesh/polyPatches/constraint/wedge/wedgePolyPatch.C at line 70
    Wedge patch 'front' is not planar.
At local face at (-0.0063122894797477 0.000297411533855259 1.26400063410715e-05) the normal (-2.61899424009859e-08 -0.0424617204995178 0.999098094429281) differs from the average normal (-1.14842112116113e-19 -0.0424616607547165 0.999098096968515) by 4.26180207133844e-15
Either correct the patch or split it into planar parts
--> FOAM Warning : 
    From function virtual void Foam::wedgePolyPatch::calcGeometry(Foam::PstreamBuffers&)
    in file meshes/polyMesh/polyPatches/constraint/wedge/wedgePolyPatch.C at line 70
    Wedge patch 'front' is not planar.
At local face at (-0.00623238922911986 0.000293646931733232 1.2480012651357e-05) the normal (-2.65170543599434e-08 -0.0424617274296545 0.99909809413475) differs from the average normal (-1.14842112116113e-19 -0.0424616607547165 0.999098096968515) by 5.15673174329554e-15
Either correct the patch or split it into planar parts
--> FOAM Warning : 
    From function virtual void Foam::wedgePolyPatch::calcGeometry(Foam::PstreamBuffers&)
    in file meshes/polyMesh/polyPatches/constraint/wedge/wedgePolyPatch.C at line 70
    Wedge patch 'front' is not planar.
At local face at (-0.00615248900655866 0.000289882330933599 1.23200190178436e-05) the normal (-2.68526628076078e-08 -0.0424617345397947 0.999098093832568) differs from the average normal (-1.14842112116113e-19 -0.0424616607547165 0.999098096968515) by 6.17513741437899e-15
Either correct the patch or split it into planar parts
--> FOAM Warning : 
    From function virtual void Foam::wedgePolyPatch::calcGeometry(Foam::PstreamBuffers&)
    in file meshes/polyMesh/polyPatches/constraint/wedge/wedgePolyPatch.C at line 70
    Wedge patch 'front' is not planar.
At local face at (-0.006072588813172 0.000286117731508562 1.21600254427498e-05) the normal (-2.71971030408799e-08 -0.0424617418370438 0.999098093522435) differs from the average normal (-1.14842112116113e-19 -0.0424616607547165 0.999098096968515) by 7.32590168353117e-15
Either correct the patch or split it into planar parts
--> FOAM Warning : 
    From function virtual void Foam::wedgePolyPatch::calcGeometry(Foam::PstreamBuffers&)
    in file meshes/polyMesh/polyPatches/constraint/wedge/wedgePolyPatch.C at line 70
    Wedge patch 'front' is not planar.
At local face at (-0.00599268865012685 0.000282353133513105 1.20000319284125e-05) the normal (-2.75507282922068e-08 -0.0424617493288864 0.999098093204031) differs from the average normal (-1.14842112116113e-19 -0.0424616607547165 0.999098096968515) by 8.61859752900725e-15
Either correct the patch or split it into planar parts
--> FOAM Warning : 
    From function virtual void Foam::wedgePolyPatch::calcGeometry(Foam::PstreamBuffers&)
    in file meshes/polyMesh/polyPatches/constraint/wedge/wedgePolyPatch.C at line 70
    Wedge patch 'front' is not planar.
At local face at (-0.00591278851865328 0.000278588537005182 1.18400384772946e-05) the normal (-2.79139110195778e-08 -0.0424617570232111 0.999098092877021) differs from the average normal (-1.14842112116113e-19 -0.0424616607547165 0.999098096968515) by 1.00635497948333e-14
Either correct the patch or split it into planar parts
--> FOAM Warning : 
    From function virtual void Foam::wedgePolyPatch::calcGeometry(Foam::PstreamBuffers&)
    in file meshes/polyMesh/polyPatches/constraint/wedge/wedgePolyPatch.C at line 70
    Wedge patch 'front' is not planar.
At local face at (-0.00583288842004875 0.000274823942045926 1.16800450919943e-05) the normal (-2.82870439877559e-08 -0.0424617649283393 0.999098092541053) differs from the average normal (-1.14842112116113e-19 -0.0424616607547165 0.999098096968515) by 1.16719029574038e-14
Either correct the patch or split it into planar parts
--> FOAM Warning : 
    From function virtual void Foam::wedgePolyPatch::calcGeometry(Foam::PstreamBuffers&)
    in file meshes/polyMesh/polyPatches/constraint/wedge/wedgePolyPatch.C at line 70
    Wedge patch 'front' is not planar.
At local face at (-0.00575298835568281 0.000271059348699864 1.15200517752539e-05) the normal (-2.86705416976607e-08 -0.0424617730530544 0.999098092195751) differs from the average normal (-1.14842112116113e-19 -0.0424616607547165 0.999098096968515) by 1.34556959132418e-14
Either correct the patch or split it into planar parts
--> FOAM Warning : 
    From function virtual void Foam::wedgePolyPatch::calcGeometry(Foam::PstreamBuffers&)
    in file meshes/polyMesh/polyPatches/constraint/wedge/wedgePolyPatch.C at line 70
    Wedge patch 'front' is not planar.
At local face at (-0.00567308832700214 0.00026729475703516 1.13600585299704e-05) the normal (-2.90648421817342e-08 -0.0424617814066347 0.999098091840723) differs from the average normal (-1.14842112116113e-19 -0.0424616607547165 0.999098096968515) by 1.54279446492666e-14
Either correct the patch or split it into planar parts
--> FOAM Warning : 
    From function virtual void Foam::wedgePolyPatch::calcGeometry(Foam::PstreamBuffers&)
    in file meshes/polyMesh/polyPatches/constraint/wedge/wedgePolyPatch.C at line 70
    Wedge patch 'front' is not planar.
At local face at (-0.00559318833553614 0.000263530167123872 1.12000653592061e-05) the normal (-2.94704084496296e-08 -0.0424617899988887 0.999098091475552) differs from the average normal (-1.14842112116113e-19 -0.0424616607547165 0.999098096968515) by 1.76027336677459e-14
Either correct the patch or split it into planar parts
--> FOAM Warning : 
    From function virtual void Foam::wedgePolyPatch::calcGeometry(Foam::PstreamBuffers&)
    in file meshes/polyMesh/polyPatches/constraint/wedge/wedgePolyPatch.C at line 70
    Wedge patch 'front' is not planar.
At local face at (-0.00551328838290281 0.000259765579042236 1.10400722662012e-05) the normal (-2.98877301833728e-08 -0.0424617988401936 0.999098091099795) differs from the average normal (-1.14842112116113e-19 -0.0424616607547165 0.999098096968515) by 1.99953172782377e-14
Either correct the patch or split it into planar parts
--> FOAM Warning : 
    From function virtual void Foam::wedgePolyPatch::calcGeometry(Foam::PstreamBuffers&)
    in file meshes/polyMesh/polyPatches/constraint/wedge/wedgePolyPatch.C at line 70
    Wedge patch 'front' is not planar.
At local face at (-0.00543338847081538 0.00025600099287097 1.0880079254386e-05) the normal (-3.03173261439491e-08 -0.0424618079415369 0.999098090712986) differs from the average normal (-1.14842112116113e-19 -0.0424616607547165 0.999098096968515) by 2.26222320027679e-14
Either correct the patch or split it into planar parts
--> FOAM Warning : 
    From function virtual void Foam::wedgePolyPatch::calcGeometry(Foam::PstreamBuffers&)
    in file meshes/polyMesh/polyPatches/constraint/wedge/wedgePolyPatch.C at line 70
    Wedge patch 'front' is not planar.
At local face at (-0.00535348860108932 0.000252236408695615 1.0720086327396e-05) the normal (-3.07597458116168e-08 -0.0424618173145622 0.999098090314632) differs from the average normal (-1.14842112116113e-19 -0.0424616607547165 0.999098096968515) by 2.55014213950203e-14
Either correct the patch or split it into planar parts
--> FOAM Warning : 
    From function virtual void Foam::wedgePolyPatch::calcGeometry(Foam::PstreamBuffers&)
    in file meshes/polyMesh/polyPatches/constraint/wedge/wedgePolyPatch.C at line 70
    Wedge patch 'front' is not planar.
At local face at (-0.00527358877565015 0.000248471826606893 1.05600934890869e-05) the normal (-3.12155722085349e-08 -0.0424618269716185 0.999098089904205) differs from the average normal (-1.14842112116113e-19 -0.0424616607547165 0.999098096968515) by 2.86523749137049e-14
Either correct the patch or split it into planar parts
--> FOAM Warning : 
    From function virtual void Foam::wedgePolyPatch::calcGeometry(Foam::PstreamBuffers&)
    in file meshes/polyMesh/polyPatches/constraint/wedge/wedgePolyPatch.C at line 70
    Wedge patch 'front' is not planar.
At local face at (-0.00519368899654189 0.000244707246701111 1.04001007435516e-05) the normal (-3.16854239901585e-08 -0.042461836925815 0.99909808948115) differs from the average normal (-1.14842112116113e-19 -0.0424616607547165 0.999098096968515) by 3.20962826611697e-14
Either correct the patch or split it into planar parts
--> FOAM Warning : 
    From function virtual void Foam::wedgePolyPatch::calcGeometry(Foam::PstreamBuffers&)
    in file meshes/polyMesh/polyPatches/constraint/wedge/wedgePolyPatch.C at line 70
    Wedge patch 'front' is not planar.
At local face at (-0.00511378926593629 0.000240942669080593 1.02401080951389e-05) the normal (-3.21699586328046e-08 -0.0424618471910802 0.999098089044875) differs from the average normal (-1.14842112116113e-19 -0.0424616607547165 0.999098096968515) by 3.58562080111691e-14
Either correct the patch or split it into planar parts
--> FOAM Warning : 
    From function virtual void Foam::wedgePolyPatch::calcGeometry(Foam::PstreamBuffers&)
    in file meshes/polyMesh/polyPatches/constraint/wedge/wedgePolyPatch.C at line 70
    Wedge patch 'front' is not planar.
At local face at (-0.00503388958614301 0.000237178093854163 1.00801155484737e-05) the normal (-3.26698753231355e-08 -0.0424618577822268 0.999098088594749) differs from the average normal (-1.14842112116113e-19 -0.0424616607547165 0.999098096968515) by 3.99572805230447e-14
Either correct the patch or split it into planar parts
--> FOAM Warning : 
    From function virtual void Foam::wedgePolyPatch::calcGeometry(Foam::PstreamBuffers&)
    in file meshes/polyMesh/polyPatches/constraint/wedge/wedgePolyPatch.C at line 70
    Wedge patch 'front' is not planar.
At local face at (-0.00693776503475358 0.000545521497633763 2.31846651976295e-05) the normal (-3.88398797935943e-08 -0.0424616687392134 0.999098096629095) differs from the average normal (-1.14842112116113e-19 -0.0424616607547165 0.999098096968515) by 1.5724036587062e-15
Either correct the patch or split it into planar parts
--> FOAM Warning : 
    From function virtual void Foam::wedgePolyPatch::calcGeometry(Foam::PstreamBuffers&)
    in file meshes/polyMesh/polyPatches/constraint/wedge/wedgePolyPatch.C at line 70
    Wedge patch 'front' is not planar.
At local face at (-0.00685802237577971 0.000539251273957477 2.2918183793685e-05) the normal (-3.92679602517255e-08 -0.0424616741735857 0.999098096398134) differs from the average normal (-1.14842112116113e-19 -0.0424616607547165 0.999098096968515) by 1.722364087522e-15
Either correct the patch or split it into planar parts
--> FOAM Warning : 
    From function virtual void Foam::wedgePolyPatch::calcGeometry(Foam::PstreamBuffers&)
    in file meshes/polyMesh/polyPatches/constraint/wedge/wedgePolyPatch.C at line 70
    Wedge patch 'front' is not planar.
At local face at (-0.00677827973770398 0.000532981051924426 2.26517024595773e-05) the normal (-3.9706113282075e-08 -0.0424616797358257 0.999098096161739) differs from the average normal (-1.14842112116113e-19 -0.0424616607547165 0.999098096968515) by 1.93750882382568e-15
Either correct the patch or split it into planar parts
--> FOAM Warning : 
    From function virtual void Foam::wedgePolyPatch::calcGeometry(Foam::PstreamBuffers&)
    in file meshes/polyMesh/polyPatches/constraint/wedge/wedgePolyPatch.C at line 70
    Wedge patch 'front' is not planar.
At local face at (-0.00669853712127276 0.0005267108315933 2.23852211978005e-05) the normal (-4.01546984216289e-08 -0.0424616854304999 0.999098095919715) differs from the average normal (-1.14842112116113e-19 -0.0424616607547165 0.999098096968515) by 2.22239406950796e-15
Either correct the patch or split it into planar parts
--> FOAM Warning : 
    From function virtual void Foam::wedgePolyPatch::calcGeometry(Foam::PstreamBuffers&)
    in file meshes/polyMesh/polyPatches/constraint/wedge/wedgePolyPatch.C at line 70
    Wedge patch 'front' is not planar.
At local face at (-0.00661879452726838 0.000520440613025612 2.21187400109689e-05) the normal (-4.06140929144098e-08 -0.0424616912623951 0.999098095671859) differs from the average normal (-1.14842112116113e-19 -0.0424616607547165 0.999098096968515) by 2.58190431250713e-15
Either correct the patch or split it into planar parts
--> FOAM Warning : 
    From function virtual void Foam::wedgePolyPatch::calcGeometry(Foam::PstreamBuffers&)
    in file meshes/polyMesh/polyPatches/constraint/wedge/wedgePolyPatch.C at line 70
    Wedge patch 'front' is not planar.
At local face at (-0.00653905195651132 0.000514170396285879 2.18522589018246e-05) the normal (-4.10846921257932e-08 -0.0424616972365318 0.999098095417958) differs from the average normal (-1.14842112116113e-19 -0.0424616607547165 0.999098096968515) by 3.02127899646614e-15
Either correct the patch or split it into planar parts
--> FOAM Warning : 
    From function virtual void Foam::wedgePolyPatch::calcGeometry(Foam::PstreamBuffers&)
    in file meshes/polyMesh/polyPatches/constraint/wedge/wedgePolyPatch.C at line 70
    Wedge patch 'front' is not planar.
At local face at (-0.00645930940986262 0.000507900181441804 2.15857778732447e-05) the normal (-4.15669111252561e-08 -0.042461703358178 0.999098095157788) differs from the average normal (-1.14842112116113e-19 -0.0424616607547165 0.999098096968515) by 3.54614175860173e-15
Either correct the patch or split it into planar parts
--> FOAM Warning : 
    From function virtual void Foam::wedgePolyPatch::calcGeometry(Foam::PstreamBuffers&)
    in file meshes/polyMesh/polyPatches/constraint/wedge/wedgePolyPatch.C at line 70
    Wedge patch 'front' is not planar.
At local face at (-0.00637956688822633 0.000501629968564472 2.13192969282505e-05) the normal (-4.20611854983682e-08 -0.0424617096328653 0.999098094891114) differs from the average normal (-1.14842112116113e-19 -0.0424616607547165 0.999098096968515) by 4.16253235037582e-15
Either correct the patch or split it into planar parts
--> FOAM Warning : 
    From function virtual void Foam::wedgePolyPatch::calcGeometry(Foam::PstreamBuffers&)
    in file meshes/polyMesh/polyPatches/constraint/wedge/wedgePolyPatch.C at line 70
    Wedge patch 'front' is not planar.
At local face at (-0.00629982439255229 0.000495359757728571 2.1052816070016e-05) the normal (-4.2567973199298e-08 -0.0424617160664055 0.999098094617688) differs from the average normal (-1.14842112116113e-19 -0.0424616607547165 0.999098096968515) by 4.87694166900807e-15
Either correct the patch or split it into planar parts
--> FOAM Warning : 
    From function virtual void Foam::wedgePolyPatch::calcGeometry(Foam::PstreamBuffers&)
    in file meshes/polyMesh/polyPatches/constraint/wedge/wedgePolyPatch.C at line 70
    Wedge patch 'front' is not planar.
At local face at (-0.00622008192383904 0.000489089549012617 2.07863353018783e-05) the normal (-4.30877554965226e-08 -0.0424617226649083 0.999098094337251) differs from the average normal (-1.14842112116113e-19 -0.0424616607547165 0.999098096968515) by 5.69635007249304e-15
Either correct the patch or split it into planar parts
--> FOAM Warning : 
    From function virtual void Foam::wedgePolyPatch::calcGeometry(Foam::PstreamBuffers&)
    in file meshes/polyMesh/polyPatches/constraint/wedge/wedgePolyPatch.C at line 70
    Wedge patch 'front' is not planar.
At local face at (-0.00614033948313701 0.000482819342499205 2.05198546273475e-05) the normal (-4.36210385248458e-08 -0.0424617294348008 0.99909809404953) differs from the average normal (-1.14842112116113e-19 -0.0424616607547165 0.999098096968515) by 6.62826945101885e-15
Either correct the patch or split it into planar parts
--> FOAM Warning : 
    From function virtual void Foam::wedgePolyPatch::calcGeometry(Foam::PstreamBuffers&)
    in file meshes/polyMesh/polyPatches/constraint/wedge/wedgePolyPatch.C at line 70
    Wedge patch 'front' is not planar.
At local face at (-0.0060605970715519 0.000476549138275278 2.02533740501187e-05) the normal (-4.41683554302811e-08 -0.0424617363828483 0.999098093754238) differs from the average normal (-1.14842112116113e-19 -0.0424616607547165 0.999098096968515) by 7.68078951854744e-15
Either correct the patch or split it into planar parts
--> FOAM Warning : 
    From function virtual void Foam::wedgePolyPatch::calcGeometry(Foam::PstreamBuffers&)
    in file meshes/polyMesh/polyPatches/constraint/wedge/wedgePolyPatch.C at line 70
    Wedge patch 'front' is not planar.
At local face at (-0.00598085469024839 0.000470278936432417 1.9986893574084e-05) the normal (-4.47302674289753e-08 -0.0424617435161772 0.999098093451071) differs from the average normal (-1.14842112116113e-19 -0.0424616607547165 0.999098096968515) by 8.8626286043343e-15
Either correct the patch or split it into planar parts
--> FOAM Warning : 
    From function virtual void Foam::wedgePolyPatch::calcGeometry(Foam::PstreamBuffers&)
    in file meshes/polyMesh/polyPatches/constraint/wedge/wedgePolyPatch.C at line 70
    Wedge patch 'front' is not planar.
At local face at (-0.00590111234045411 0.000464008737067148 1.97204132033458e-05) the normal (-4.53073662617284e-08 -0.0424617508422987 0.99909809313971) differs from the average normal (-1.14842112116113e-19 -0.0424616607547165 0.999098096968515) by 1.01831896468065e-14
Either correct the patch or split it into planar parts
--> FOAM Warning : 
    From function virtual void Foam::wedgePolyPatch::calcGeometry(Foam::PstreamBuffers&)
    in file meshes/polyMesh/polyPatches/constraint/wedge/wedgePolyPatch.C at line 70
    Wedge patch 'front' is not planar.
At local face at (-0.00582137002346397 0.000457738540281293 1.94539329422313e-05) the normal (-4.59002759543403e-08 -0.0424617583691359 0.999098092819819) differs from the average normal (-1.14842112116113e-19 -0.0424616607547165 0.999098096968515) by 1.16526218804199e-14
Either correct the patch or split it into planar parts
--> FOAM Warning : 
    From function virtual void Foam::wedgePolyPatch::calcGeometry(Foam::PstreamBuffers&)
    in file meshes/polyMesh/polyPatches/constraint/wedge/wedgePolyPatch.C at line 70
    Wedge patch 'front' is not planar.
At local face at (-0.00574162774064479 0.000451468346182326 1.91874527953083e-05) the normal (-4.65096553868944e-08 -0.0424617661050519 0.999098092491042) differs from the average normal (-1.14842112116113e-19 -0.0424616607547165 0.999098096968515) by 1.32818889761163e-14
Either correct the patch or split it into planar parts
--> FOAM Warning : 
    From function virtual void Foam::wedgePolyPatch::calcGeometry(Foam::PstreamBuffers&)
    in file meshes/polyMesh/polyPatches/constraint/wedge/wedgePolyPatch.C at line 70
    Wedge patch 'front' is not planar.
At local face at (-0.00566188549344043 0.000445198154883778 1.89209727674017e-05) the normal (-4.71362003593615e-08 -0.0424617740588811 0.999098092153003) differs from the average normal (-1.14842112116113e-19 -0.0424616607547165 0.999098096968515) by 1.50828442403399e-14
Either correct the patch or split it into planar parts
--> FOAM Warning : 
    From function virtual void Foam::wedgePolyPatch::calcGeometry(Foam::PstreamBuffers&)
    in file meshes/polyMesh/polyPatches/constraint/wedge/wedgePolyPatch.C at line 70
    Wedge patch 'front' is not planar.
At local face at (-0.00558214328337724 0.000438927966505668 1.86544928636123e-05) the normal (-4.77806468470899e-08 -0.0424617822399625 0.999098091805306) differs from the average normal (-1.14842112116113e-19 -0.0424616607547165 0.999098096968515) by 1.70683139192046e-14
Either correct the patch or split it into planar parts
--> FOAM Warning : 
    From function virtual void Foam::wedgePolyPatch::calcGeometry(Foam::PstreamBuffers&)
    in file meshes/polyMesh/polyPatches/constraint/wedge/wedgePolyPatch.C at line 70
    Wedge patch 'front' is not planar.
At local face at (-0.00550240111207004 0.000432657781174969 1.83880130893363e-05) the normal (-4.84437727143799e-08 -0.0424617906581767 0.999098091447531) differs from the average normal (-1.14842112116113e-19 -0.0424616607547165 0.999098096968515) by 1.92521893508954e-14
Either correct the patch or split it into planar parts
--> FOAM Warning : 
    From function virtual void Foam::wedgePolyPatch::calcGeometry(Foam::PstreamBuffers&)
    in file meshes/polyMesh/polyPatches/constraint/wedge/wedgePolyPatch.C at line 70
    Wedge patch 'front' is not planar.
At local face at (-0.00542265898122867 0.000426387599026128 1.81215334502877e-05) the normal (-4.91264024285829e-08 -0.0424617993239855 0.999098091079233) differs from the average normal (-1.14842112116113e-19 -0.0424616607547165 0.999098096968515) by 2.16495293651395e-14
Either correct the patch or split it into planar parts
--> FOAM Warning : 
    From function virtual void Foam::wedgePolyPatch::calcGeometry(Foam::PstreamBuffers&)
    in file meshes/polyMesh/polyPatches/constraint/wedge/wedgePolyPatch.C at line 70
    Wedge patch 'front' is not planar.
At local face at (-0.00534291689266502 0.000420117420201615 1.78550539525215e-05) the normal (-4.98294090154286e-08 -0.0424618082484752 0.999098090699941) differs from the average normal (-1.14842112116113e-19 -0.0424616607547165 0.999098096968515) by 2.42766738684644e-14
Either correct the patch or split it into planar parts
--> FOAM Warning : 
    From function virtual void Foam::wedgePolyPatch::calcGeometry(Foam::PstreamBuffers&)
    in file meshes/polyMesh/polyPatches/constraint/wedge/wedgePolyPatch.C at line 70
    Wedge patch 'front' is not planar.
At local face at (-0.0052631748483008 0.000413847244852537 1.75885746024594e-05) the normal (-5.05537189815334e-08 -0.042461817443404 0.999098090309155) differs from the average normal (-1.14842112116113e-19 -0.0424616607547165 0.999098096968515) by 2.71513703426812e-14
Either correct the patch or split it into planar parts
--> FOAM Warning : 
    From function virtual void Foam::wedgePolyPatch::calcGeometry(Foam::PstreamBuffers&)
    in file meshes/polyMesh/polyPatches/constraint/wedge/wedgePolyPatch.C at line 70
    Wedge patch 'front' is not planar.
At local face at (-0.005183432850176 0.000407577073139297 1.73220954069187e-05) the normal (-5.13003153364524e-08 -0.0424618269212536 0.999098089906345) differs from the average normal (-1.14842112116113e-19 -0.0424616607547165 0.999098096968515) by 3.02929146512473e-14
Either correct the patch or split it into planar parts
--> FOAM Warning : 
    From function virtual void Foam::wedgePolyPatch::calcGeometry(Foam::PstreamBuffers&)
    in file meshes/polyMesh/polyPatches/constraint/wedge/wedgePolyPatch.C at line 70
    Wedge patch 'front' is not planar.
At local face at (-0.00510369090045809 0.000401306905232326 1.70556163731426e-05) the normal (-5.2070242840013e-08 -0.0424618366952862 0.999098089490947) differs from the average normal (-1.14842112116113e-19 -0.0424616607547165 0.999098096968515) by 3.37223082501685e-14
Either correct the patch or split it into planar parts
--> FOAM Warning : 
    From function virtual void Foam::wedgePolyPatch::calcGeometry(Foam::PstreamBuffers&)
    in file meshes/polyMesh/polyPatches/constraint/wedge/wedgePolyPatch.C at line 70
    Wedge patch 'front' is not planar.
At local face at (-0.00502394900145215 0.000395036741312875 1.67891375088341e-05) the normal (-5.28646124384143e-08 -0.0424618467796054 0.999098089062361) differs from the average normal (-1.14842112116113e-19 -0.0424616607547165 0.999098096968515) by 3.74624337993134e-14
Either correct the patch or split it into planar parts
--> FOAM Warning : 
    From function virtual void Foam::wedgePolyPatch::calcGeometry(Foam::PstreamBuffers&)
    in file meshes/polyMesh/polyPatches/constraint/wedge/wedgePolyPatch.C at line 70
    Wedge patch 'front' is not planar.
At local face at (-0.00691719095398367 0.000762976238448552 3.24264922535154e-05) the normal (-5.30060750477779e-08 -0.0424616658220415 0.999098096753074) differs from the average normal (-1.14842112116113e-19 -0.0424616607547165 0.999098096968515) by 2.83536818865753e-15
Either correct the patch or split it into planar parts
--> FOAM Warning : 
    From function virtual void Foam::wedgePolyPatch::calcGeometry(Foam::PstreamBuffers&)
    in file meshes/polyMesh/polyPatches/constraint/wedge/wedgePolyPatch.C at line 70
    Wedge patch 'front' is not planar.
At local face at (-0.00683768477366026 0.000754206590160578 3.20537864482693e-05) the normal (-5.3575355948179e-08 -0.0424616709738723 0.999098096534121) differs from the average normal (-1.14842112116113e-19 -0.0424616607547165 0.999098096968515) by 2.97493860785368e-15
Either correct the patch or split it into planar parts
--> FOAM Warning : 
    From function virtual void Foam::wedgePolyPatch::calcGeometry(Foam::PstreamBuffers&)
    in file meshes/polyMesh/polyPatches/constraint/wedge/wedgePolyPatch.C at line 70
    Wedge patch 'front' is not planar.
At local face at (-0.00675817861417303 0.000745436944170865 3.16810807406982e-05) the normal (-5.41580317270645e-08 -0.0424616762469227 0.999098096310016) differs from the average normal (-1.14842112116113e-19 -0.0424616607547165 0.999098096968515) by 3.17353447331695e-15
Either correct the patch or split it into planar parts
--> FOAM Warning : 
    From function virtual void Foam::wedgePolyPatch::calcGeometry(Foam::PstreamBuffers&)
    in file meshes/polyMesh/polyPatches/constraint/wedge/wedgePolyPatch.C at line 70
    Wedge patch 'front' is not planar.
At local face at (-0.00667867247626611 0.000736667300561493 3.13083751342904e-05) the normal (-5.47545806551114e-08 -0.042461681645522 0.999098096080576) differs from the average normal (-1.14842112116113e-19 -0.0424616607547165 0.999098096968515) by 3.43527828981101e-15
Either correct the patch or split it into planar parts
--> FOAM Warning : 
    From function virtual void Foam::wedgePolyPatch::calcGeometry(Foam::PstreamBuffers&)
    in file meshes/polyMesh/polyPatches/constraint/wedge/wedgePolyPatch.C at line 70
    Wedge patch 'front' is not planar.
At local face at (-0.00659916636071952 0.000727897659418499 3.09356696327024e-05) the normal (-5.53655042990993e-08 -0.0424616871742079 0.999098095845606) differs from the average normal (-1.14842112116113e-19 -0.0424616607547165 0.999098096968515) by 3.76458951497309e-15
Either correct the patch or split it into planar parts
--> FOAM Warning : 
    From function virtual void Foam::wedgePolyPatch::calcGeometry(Foam::PstreamBuffers&)
    in file meshes/polyMesh/polyPatches/constraint/wedge/wedgePolyPatch.C at line 70
    Wedge patch 'front' is not planar.
At local face at (-0.00651966026835133 0.000719128020832115 3.05629642397692e-05) the normal (-5.59913285907441e-08 -0.0424616928377399 0.999098095604906) differs from the average normal (-1.14842112116113e-19 -0.0424616607547165 0.999098096968515) by 4.16620869479047e-15
Either correct the patch or split it into planar parts
--> FOAM Warning : 
    From function virtual void Foam::wedgePolyPatch::calcGeometry(Foam::PstreamBuffers&)
    in file meshes/polyMesh/polyPatches/constraint/wedge/wedgePolyPatch.C at line 70
    Wedge patch 'front' is not planar.
At local face at (-0.00644015420001999 0.000710358384897032 3.01902589595149e-05) the normal (-5.66326051975676e-08 -0.0424616986411122 0.999098095358263) differs from the average normal (-1.14842112116113e-19 -0.0424616607547165 0.999098096968515) by 4.64522385759061e-15
Either correct the patch or split it into planar parts
--> FOAM Warning : 
    From function virtual void Foam::wedgePolyPatch::calcGeometry(Foam::PstreamBuffers&)
    in file meshes/polyMesh/polyPatches/constraint/wedge/wedgePolyPatch.C at line 70
    Wedge patch 'front' is not planar.
At local face at (-0.00636064815662689 0.000701588751712672 2.98175537961651e-05) the normal (-5.72899138343812e-08 -0.0424617045895688 0.999098095105453) differs from the average normal (-1.14842112116113e-19 -0.0424616607547165 0.999098096968515) by 5.20709949644259e-15
Either correct the patch or split it into planar parts
--> FOAM Warning : 
    From function virtual void Foam::wedgePolyPatch::calcGeometry(Foam::PstreamBuffers&)
    in file meshes/polyMesh/polyPatches/constraint/wedge/wedgePolyPatch.C at line 70
    Wedge patch 'front' is not planar.
At local face at (-0.00628114213911904 0.000692819121383495 2.94448487541591e-05) the normal (-5.79638631769886e-08 -0.0424617106886192 0.999098094846243) differs from the average normal (-1.14842112116113e-19 -0.0424616607547165 0.999098096968515) by 5.857708111308e-15
Either correct the patch or split it into planar parts
--> FOAM Warning : 
    From function virtual void Foam::wedgePolyPatch::calcGeometry(Foam::PstreamBuffers&)
    in file meshes/polyMesh/polyPatches/constraint/wedge/wedgePolyPatch.C at line 70
    Wedge patch 'front' is not planar.
At local face at (-0.00620163614849203 0.000684049494019313 2.9072143838164e-05) the normal (-5.8655093233417e-08 -0.0424617169440556 0.999098094580387) differs from the average normal (-1.14842112116113e-19 -0.0424616607547165 0.999098096968515) by 6.60336494130625e-15
Either correct the patch or split it into planar parts
--> FOAM Warning : 
    From function virtual void Foam::wedgePolyPatch::calcGeometry(Foam::PstreamBuffers&)
    in file meshes/polyMesh/polyPatches/constraint/wedge/wedgePolyPatch.C at line 70
    Wedge patch 'front' is not planar.
At local face at (-0.00612213018579318 0.000675279869735647 2.86994390530894e-05) the normal (-5.93642772507252e-08 -0.0424617233619708 0.999098094307625) differs from the average normal (-1.14842112116113e-19 -0.0424616607547165 0.999098096968515) by 7.45086603773016e-15
Either correct the patch or split it into planar parts
--> FOAM Warning : 
    From function virtual void Foam::wedgePolyPatch::calcGeometry(Foam::PstreamBuffers&)
    in file meshes/polyMesh/polyPatches/constraint/wedge/wedgePolyPatch.C at line 70
    Wedge patch 'front' is not planar.
At local face at (-0.00604262425212489 0.000666510248654097 2.83267344041031e-05) the normal (-6.0092124161913e-08 -0.0424617299487786 0.999098094027685) differs from the average normal (-1.14842112116113e-19 -0.0424616607547165 0.999098096968515) by 8.40753008907601e-15
Either correct the patch or split it into planar parts
--> FOAM Warning : 
    From function virtual void Foam::wedgePolyPatch::calcGeometry(Foam::PstreamBuffers&)
    in file meshes/polyMesh/polyPatches/constraint/wedge/wedgePolyPatch.C at line 70
    Wedge patch 'front' is not planar.
At local face at (-0.00596311834864841 0.000657740630902745 2.79540298966486e-05) the normal (-6.08393802700878e-08 -0.0424617367112346 0.99909809374028) differs from the average normal (-1.14842112116113e-19 -0.0424616607547165 0.999098096968515) by 9.48124432286509e-15
Either correct the patch or split it into planar parts
--> FOAM Warning : 
    From function virtual void Foam::wedgePolyPatch::calcGeometry(Foam::PstreamBuffers&)
    in file meshes/polyMesh/polyPatches/constraint/wedge/wedgePolyPatch.C at line 70
    Wedge patch 'front' is not planar.
At local face at (-0.00588361247658772 0.000648971016616602 2.75813255364638e-05) the normal (-6.16068324944883e-08 -0.0424617436564596 0.999098093445108) differs from the average normal (-1.14842112116113e-19 -0.0424616607547165 0.999098096968515) by 1.0680515211745e-14
Either correct the patch or split it into planar parts
--> FOAM Warning : 
    From function virtual void Foam::wedgePolyPatch::calcGeometry(Foam::PstreamBuffers&)
    in file meshes/polyMesh/polyPatches/constraint/wedge/wedgePolyPatch.C at line 70
    Wedge patch 'front' is not planar.
At local face at (-0.00580410663723388 0.000640201405938073 2.72086213296009e-05) the normal (-6.23953107431962e-08 -0.0424617507919648 0.999098093141848) differs from the average normal (-1.14842112116113e-19 -0.0424616607547165 0.999098096968515) by 1.20145242564817e-14
Either correct the patch or split it into planar parts
--> FOAM Warning : 
    From function virtual void Foam::wedgePolyPatch::calcGeometry(Foam::PstreamBuffers&)
    in file meshes/polyMesh/polyPatches/constraint/wedge/wedgePolyPatch.C at line 70
    Wedge patch 'front' is not planar.
At local face at (-0.00572460083194968 0.000631431799017474 2.68359172824481e-05) the normal (-6.32056912607986e-08 -0.0424617581256785 0.999098092830165) differs from the average normal (-1.14842112116113e-19 -0.0424616607547165 0.999098096968515) by 1.34931895828077e-14
Either correct the patch or split it into planar parts
--> FOAM Warning : 
    From function virtual void Foam::wedgePolyPatch::calcGeometry(Foam::PstreamBuffers&)
    in file meshes/polyMesh/polyPatches/constraint/wedge/wedgePolyPatch.C at line 70
    Wedge patch 'front' is not planar.
At local face at (-0.00564509506217467 0.000622662196013592 2.6463213401754e-05) the normal (-6.40388992945488e-08 -0.0424617656659757 0.999098092509701) differs from the average normal (-1.14842112116113e-19 -0.0424616607547165 0.999098096968515) by 1.51272339485986e-14
Either correct the patch or split it into planar parts
--> FOAM Warning : 
    From function virtual void Foam::wedgePolyPatch::calcGeometry(Foam::PstreamBuffers&)
    in file meshes/polyMesh/polyPatches/constraint/wedge/wedgePolyPatch.C at line 70
    Wedge patch 'front' is not planar.
At local face at (-0.00556558932943069 0.000613892597094285 2.60905096946523e-05) the normal (-6.48959134292094e-08 -0.04246177342171 0.999098092180082) differs from the average normal (-1.14842112116113e-19 -0.0424616607547165 0.999098096968515) by 1.69282600947601e-14
Either correct the patch or split it into planar parts
--> FOAM Warning : 
    From function virtual void Foam::wedgePolyPatch::calcGeometry(Foam::PstreamBuffers&)
    in file meshes/polyMesh/polyPatches/constraint/wedge/wedgePolyPatch.C at line 70
    Wedge patch 'front' is not planar.
At local face at (-0.00548608363532777 0.000605123002437146 2.57178061686907e-05) the normal (-6.57777684106008e-08 -0.0424617814022482 0.999098091840908) differs from the average normal (-1.14842112116113e-19 -0.0424616607547165 0.999098096968515) by 1.89088340745083e-14
Either correct the patch or split it into planar parts
--> FOAM Warning : 
    From function virtual void Foam::wedgePolyPatch::calcGeometry(Foam::PstreamBuffers&)
    in file meshes/polyMesh/polyPatches/constraint/wedge/wedgePolyPatch.C at line 70
    Wedge patch 'front' is not planar.
At local face at (-0.00540657798157067 0.000596353412230209 2.53451028318605e-05) the normal (-6.66855603694787e-08 -0.0424617896175081 0.999098091491758) differs from the average normal (-1.14842112116113e-19 -0.0424616607547165 0.999098096968515) by 2.10825778828066e-14
Either correct the patch or split it into planar parts
--> FOAM Warning : 
    From function virtual void Foam::wedgePolyPatch::calcGeometry(Foam::PstreamBuffers&)
    in file meshes/polyMesh/polyPatches/constraint/wedge/wedgePolyPatch.C at line 70
    Wedge patch 'front' is not planar.
At local face at (-0.00532707236996592 0.000587583826672738 2.49723996926304e-05) the normal (-6.76204504924531e-08 -0.0424617980779997 0.999098091132186) differs from the average normal (-1.14842112116113e-19 -0.0424616607547165 0.999098096968515) by 2.34642721568682e-14
Either correct the patch or split it into planar parts
--> FOAM Warning : 
    From function virtual void Foam::wedgePolyPatch::calcGeometry(Foam::PstreamBuffers&)
    in file meshes/polyMesh/polyPatches/constraint/wedge/wedgePolyPatch.C at line 70
    Wedge patch 'front' is not planar.
At local face at (-0.00524756680242953 0.000578814245976072 2.45996967599821e-05) the normal (-6.85836708476327e-08 -0.0424618067948698 0.999098090761718) differs from the average normal (-1.14842112116113e-19 -0.0424616607547165 0.999098096968515) by 2.60699706055873e-14
Either correct the patch or split it into planar parts
--> FOAM Warning : 
    From function virtual void Foam::wedgePolyPatch::calcGeometry(Foam::PstreamBuffers&)
    in file meshes/polyMesh/polyPatches/constraint/wedge/wedgePolyPatch.C at line 70
    Wedge patch 'front' is not planar.
At local face at (-0.00516806128099544 0.000570044670364557 2.42269940434503e-05) the normal (-6.95765285996642e-08 -0.0424618157799514 0.999098090379851) differs from the average normal (-1.14842112116113e-19 -0.0424616607547165 0.999098096968515) by 2.8917127265757e-14
Either correct the patch or split it into planar parts
--> FOAM Warning : 
    From function virtual void Foam::wedgePolyPatch::calcGeometry(Foam::PstreamBuffers&)
    in file meshes/polyMesh/polyPatches/constraint/wedge/wedgePolyPatch.C at line 70
    Wedge patch 'front' is not planar.
At local face at (-0.00508855580782467 0.000561275100076558 2.38542915531653e-05) the normal (-7.06004131542119e-08 -0.0424618250458167 0.99909808998605) differs from the average normal (-1.14842112116113e-19 -0.0424616607547165 0.999098096968515) by 3.20247387487088e-14
Either correct the patch or split it into planar parts
--> FOAM Warning : 
    From function virtual void Foam::wedgePolyPatch::calcGeometry(Foam::PstreamBuffers&)
    in file meshes/polyMesh/polyPatches/constraint/wedge/wedgePolyPatch.C at line 70
    Wedge patch 'front' is not planar.
At local face at (-0.0050090503852155 0.000552505535365576 2.34815892999009e-05) the normal (-7.16568019834228e-08 -0.0424618346058365 0.999098089579748) differs from the average normal (-1.14842112116113e-19 -0.0424616607547165 0.999098096968515) by 3.54135030741443e-14
Either correct the patch or split it into planar parts
--> FOAM Warning : 
    From function virtual void Foam::wedgePolyPatch::calcGeometry(Foam::PstreamBuffers&)
    in file meshes/polyMesh/polyPatches/constraint/wedge/wedgePolyPatch.C at line 70
    Wedge patch 'front' is not planar.
At local face at (-0.00688979044085575 0.000979678013833833 4.16363182495748e-05) the normal (-6.62924254358061e-08 -0.0424616621169891 0.999098096910538) differs from the average normal (-1.14842112116113e-19 -0.0424616607547165 0.999098096968515) by 4.39654481796041e-15
Either correct the patch or split it into planar parts
--> FOAM Warning : 
    From function virtual void Foam::wedgePolyPatch::calcGeometry(Foam::PstreamBuffers&)
    in file meshes/polyMesh/polyPatches/constraint/wedge/wedgePolyPatch.C at line 70
    Wedge patch 'front' is not planar.
At local face at (-0.00681059920216648 0.000968417595523554 4.11577558048196e-05) the normal (-6.69848711226618e-08 -0.0424616669779779 0.999098096703946) differs from the average normal (-1.14842112116113e-19 -0.0424616607547165 0.999098096968515) by 4.52577193857994e-15
Either correct the patch or split it into planar parts
--> FOAM Warning : 
    From function virtual void Foam::wedgePolyPatch::calcGeometry(Foam::PstreamBuffers&)
    in file meshes/polyMesh/polyPatches/constraint/wedge/wedgePolyPatch.C at line 70
    Wedge patch 'front' is not planar.
At local face at (-0.00673140798423085 0.000957157180164291 4.06791934854812e-05) the normal (-6.76936097629632e-08 -0.042461671953343 0.999098096492493) differs from the average normal (-1.14842112116113e-19 -0.0424616607547165 0.999098096968515) by 4.70806063371958e-15
Either correct the patch or split it into planar parts
--> FOAM Warning : 
    From function virtual void Foam::wedgePolyPatch::calcGeometry(Foam::PstreamBuffers&)
    in file meshes/polyMesh/polyPatches/constraint/wedge/wedgePolyPatch.C at line 70
    Wedge patch 'front' is not planar.
At local face at (-0.00665221678779005 0.000945896767861436 4.02006312960387e-05) the normal (-6.84192230761117e-08 -0.0424616770471691 0.999098096276005) differs from the average normal (-1.14842112116113e-19 -0.0424616607547165 0.999098096968515) by 4.94711366828108e-15
Either correct the patch or split it into planar parts
--> FOAM Warning : 
    From function virtual void Foam::wedgePolyPatch::calcGeometry(Foam::PstreamBuffers&)
    in file meshes/polyMesh/polyPatches/constraint/wedge/wedgePolyPatch.C at line 70
    Wedge patch 'front' is not planar.
At local face at (-0.00657302561362101 0.000934636358725464 3.97220692411873e-05) the normal (-6.91623209480607e-08 -0.0424616822637381 0.999098096054301) differs from the average normal (-1.14842112116113e-19 -0.0424616607547165 0.999098096968515) by 5.24690043604118e-15
Either correct the patch or split it into planar parts
--> FOAM Warning : 
    From function virtual void Foam::wedgePolyPatch::calcGeometry(Foam::PstreamBuffers&)
    in file meshes/polyMesh/polyPatches/constraint/wedge/wedgePolyPatch.C at line 70
    Wedge patch 'front' is not planar.
At local face at (-0.00649383446253854 0.000923375952872236 3.92435073258508e-05) the normal (-6.99235433483255e-08 -0.0424616876075404 0.999098095827189) differs from the average normal (-1.14842112116113e-19 -0.0424616607547165 0.999098096968515) by 5.61167869123284e-15
Either correct the patch or split it into planar parts
--> FOAM Warning : 
    From function virtual void Foam::wedgePolyPatch::calcGeometry(Foam::PstreamBuffers&)
    in file meshes/polyMesh/polyPatches/constraint/wedge/wedgePolyPatch.C at line 70
    Wedge patch 'front' is not planar.
At local face at (-0.00641464333539772 0.000912115550423334 3.87649455551967e-05) the normal (-7.07035611348991e-08 -0.0424616930832886 0.999098095594469) differs from the average normal (-1.14842112116113e-19 -0.0424616607547165 0.999098096968515) by 6.04601812793635e-15
Either correct the patch or split it into planar parts
--> FOAM Warning : 
    From function virtual void Foam::wedgePolyPatch::calcGeometry(Foam::PstreamBuffers&)
    in file meshes/polyMesh/polyPatches/constraint/wedge/wedgePolyPatch.C at line 70
    Wedge patch 'front' is not planar.
At local face at (-0.00633545223309634 0.000900855151506421 3.82863839346504e-05) the normal (-7.15030796272608e-08 -0.0424616986959304 0.999098095355932) differs from the average normal (-1.14842112116113e-19 -0.0424616607547165 0.999098096968515) by 6.55482652633559e-15
Either correct the patch or split it into planar parts
--> FOAM Warning : 
    From function virtual void Foam::wedgePolyPatch::calcGeometry(Foam::PstreamBuffers&)
    in file meshes/polyMesh/polyPatches/constraint/wedge/wedgePolyPatch.C at line 70
    Wedge patch 'front' is not planar.
At local face at (-0.00625626115657768 0.000889594756255624 3.78078224699123e-05) the normal (-7.23228389048791e-08 -0.0424617044506644 0.999098095111356) differs from the average normal (-1.14842112116113e-19 -0.0424616607547165 0.999098096968515) by 7.14337792349568e-15
Either correct the patch or split it into planar parts
--> FOAM Warning : 
    From function virtual void Foam::wedgePolyPatch::calcGeometry(Foam::PstreamBuffers&)
    in file meshes/polyMesh/polyPatches/constraint/wedge/wedgePolyPatch.C at line 70
    Wedge patch 'front' is not planar.
At local face at (-0.00617707010683339 0.000878334364811946 3.7329261166975e-05) the normal (-7.31636177074488e-08 -0.0424617103529556 0.999098094860508) differs from the average normal (-1.14842112116113e-19 -0.0424616607547165 0.999098096968515) by 7.81734397145287e-15
Either correct the patch or split it into planar parts
--> FOAM Warning : 
    From function virtual void Foam::wedgePolyPatch::calcGeometry(Foam::PstreamBuffers&)
    in file meshes/polyMesh/polyPatches/constraint/wedge/wedgePolyPatch.C at line 70
    Wedge patch 'front' is not planar.
At local face at (-0.00609787908490661 0.000867073977323717 3.68507000321423e-05) the normal (-7.40262348878003e-08 -0.0424617164085532 0.999098094603145) differs from the average normal (-1.14842112116113e-19 -0.0424616607547165 0.999098096968515) by 8.58282796830951e-15
Either correct the patch or split it into planar parts
--> FOAM Warning : 
    From function virtual void Foam::wedgePolyPatch::calcGeometry(Foam::PstreamBuffers&)
    in file meshes/polyMesh/polyPatches/constraint/wedge/wedgePolyPatch.C at line 70
    Wedge patch 'front' is not planar.
At local face at (-0.00601868809189541 0.000855813593947073 3.63721390720501e-05) the normal (-7.49115526820044e-08 -0.0424617226235087 0.999098094339009) differs from the average normal (-1.14842112116113e-19 -0.0424616607547165 0.999098096968515) by 9.44640246622018e-15
Either correct the patch or split it into planar parts
--> FOAM Warning : 
    From function virtual void Foam::wedgePolyPatch::calcGeometry(Foam::PstreamBuffers&)
    in file meshes/polyMesh/polyPatches/constraint/wedge/wedgePolyPatch.C at line 70
    Wedge patch 'front' is not planar.
At local face at (-0.00593949712895642 0.000844553214846478 3.58935782936879e-05) the normal (-7.58204787675001e-08 -0.0424617290041963 0.999098094067829) differs from the average normal (-1.14842112116113e-19 -0.0424616607547165 0.999098096968515) by 1.04151504629584e-14
Either correct the patch or split it into planar parts
--> FOAM Warning : 
    From function virtual void Foam::wedgePolyPatch::calcGeometry(Foam::PstreamBuffers&)
    in file meshes/polyMesh/polyPatches/constraint/wedge/wedgePolyPatch.C at line 70
    Wedge patch 'front' is not planar.
At local face at (-0.00586030619730877 0.000833292840195284 3.54150177044232e-05) the normal (-7.67539704694422e-08 -0.0424617355573349 0.99909809378932) differs from the average normal (-1.14842112116113e-19 -0.0424616607547165 0.999098096968515) by 1.14967109718454e-14
Either correct the patch or split it into planar parts
--> FOAM Warning : 
    From function virtual void Foam::wedgePolyPatch::calcGeometry(Foam::PstreamBuffers&)
    in file meshes/polyMesh/polyPatches/constraint/wedge/wedgePolyPatch.C at line 70
    Wedge patch 'front' is not planar.
At local face at (-0.00578111529823841 0.000822032470176344 3.49364573120271e-05) the normal (-7.77130372802863e-08 -0.0424617422900115 0.999098093503181) differs from the average normal (-1.14842112116113e-19 -0.0424616607547165 0.999098096968515) by 1.26993290323018e-14
Either correct the patch or split it into planar parts
--> FOAM Warning : 
    From function virtual void Foam::wedgePolyPatch::calcGeometry(Foam::PstreamBuffers&)
    in file meshes/polyMesh/polyPatches/constraint/wedge/wedgePolyPatch.C at line 70
    Wedge patch 'front' is not planar.
At local face at (-0.00570192443310274 0.000810772104982669 3.44578971247024e-05) the normal (-7.86987449635913e-08 -0.042461749209707 0.999098093209093) differs from the average normal (-1.14842112116113e-19 -0.0424616607547165 0.999098096968515) by 1.40319110435744e-14
Either correct the patch or split it into planar parts
--> FOAM Warning : 
    From function virtual void Foam::wedgePolyPatch::calcGeometry(Foam::PstreamBuffers&)
    in file meshes/polyMesh/polyPatches/constraint/wedge/wedgePolyPatch.C at line 70
    Wedge patch 'front' is not planar.
At local face at (-0.0056227336033356 0.000799511744818144 3.39793371511142e-05) the normal (-7.97122189270554e-08 -0.0424617563243235 0.999098092906721) differs from the average normal (-1.14842112116113e-19 -0.0424616607547165 0.999098096968515) by 1.55040857850088e-14
Either correct the patch or split it into planar parts
--> FOAM Warning : 
    From function virtual void Foam::wedgePolyPatch::calcGeometry(Foam::PstreamBuffers&)
    in file meshes/polyMesh/polyPatches/constraint/wedge/wedgePolyPatch.C at line 70
    Wedge patch 'front' is not planar.
At local face at (-0.00554354281045279 0.000788251389898302 3.35007774004226e-05) the normal (-8.07546493503011e-08 -0.0424617636422147 0.99909809259571) differs from the average normal (-1.14842112116113e-19 -0.0424616607547165 0.999098096968515) by 1.71262720947769e-14
Either correct the patch or split it into planar parts
--> FOAM Warning : 
    From function virtual void Foam::wedgePolyPatch::calcGeometry(Foam::PstreamBuffers&)
    in file meshes/polyMesh/polyPatches/constraint/wedge/wedgePolyPatch.C at line 70
    Wedge patch 'front' is not planar.
At local face at (-0.00546435205605798 0.000776991040451174 3.30222178823188e-05) the normal (-8.18272951381932e-08 -0.0424617711722188 0.999098092275684) differs from the average normal (-1.14842112116113e-19 -0.0424616607547165 0.999098096968515) by 1.89097536905307e-14
Either correct the patch or split it into planar parts
--> FOAM Warning : 
    From function virtual void Foam::wedgePolyPatch::calcGeometry(Foam::PstreamBuffers&)
    in file meshes/polyMesh/polyPatches/constraint/wedge/wedgePolyPatch.C at line 70
    Wedge patch 'front' is not planar.
[...]
    Wedge patch 'back' is not planar.
At local face at (0.000293912012828752 0.00622676804050265 -0.000264637542256523) the normal (-8.63157398160528e-08 -0.0424617958540237 -0.999098091226704) differs from the average normal (1.55524974302567e-20 -0.0424616607547166 -0.999098096968515) by 2.57351981126965e-14
Either correct the patch or split it into planar parts
--> FOAM Warning : 
    From function virtual void Foam::wedgePolyPatch::calcGeometry(Foam::PstreamBuffers&)
    in file meshes/polyMesh/polyPatches/constraint/wedge/wedgePolyPatch.C at line 70
    Wedge patch 'back' is not planar.
At local face at (0.000297680013217956 0.00630659624731751 -0.000268030251517173) the normal (-7.69705764581452e-08 -0.0424617962943355 -0.999098091207992) differs from the average normal (1.55524974302567e-20 -0.0424616607547166 -0.999098096968515) by 2.43286415693853e-14
Either correct the patch or split it into planar parts
--> FOAM Warning : 
    From function virtual void Foam::wedgePolyPatch::calcGeometry(Foam::PstreamBuffers&)
    in file meshes/polyMesh/polyPatches/constraint/wedge/wedgePolyPatch.C at line 70
    Wedge patch 'back' is not planar.
At local face at (0.000301448014881113 0.00638642448112215 -0.000271422961924893) the normal (-6.78590420522536e-08 -0.0424617967236364 -0.999098091189747) differs from the average normal (1.55524974302567e-20 -0.0424616607547166 -0.999098096968515) by 2.31257909037917e-14
Either correct the patch or split it into planar parts
--> FOAM Warning : 
    From function virtual void Foam::wedgePolyPatch::calcGeometry(Foam::PstreamBuffers&)
    in file meshes/polyMesh/polyPatches/constraint/wedge/wedgePolyPatch.C at line 70
    Wedge patch 'back' is not planar.
At local face at (0.000305216017771043 0.00646625274091696 -0.000274815673437199) the normal (-5.89724838990669e-08 -0.042461797142337 -0.999098091171953) differs from the average normal (1.55524974302567e-20 -0.0424616607547166 -0.999098096968515) by 2.21129370002603e-14
Either correct the patch or split it into planar parts
--> FOAM Warning : 
    From function virtual void Foam::wedgePolyPatch::calcGeometry(Foam::PstreamBuffers&)
    in file meshes/polyMesh/polyPatches/constraint/wedge/wedgePolyPatch.C at line 70
    Wedge patch 'back' is not planar.
At local face at (0.000308984021842861 0.00654608102575106 -0.000278208386013678) the normal (-5.03026709292049e-08 -0.0424617975508269 -0.999098091154592) differs from the average normal (1.55524974302567e-20 -0.0424616607547166 -0.999098096968515) by 2.1277336199756e-14
Either correct the patch or split it into planar parts
--> FOAM Warning : 
    From function virtual void Foam::wedgePolyPatch::calcGeometry(Foam::PstreamBuffers&)
    in file meshes/polyMesh/polyPatches/constraint/wedge/wedgePolyPatch.C at line 70
    Wedge patch 'back' is not planar.
At local face at (0.00031275202705385 0.00662590933471944 -0.000281601099615866) the normal (-4.18417690512227e-08 -0.0424617979494729 -0.99909809113765) differs from the average normal (1.55524974302567e-20 -0.0424616607547166 -0.999098096968515) by 2.06071337735077e-14
Either correct the patch or split it into planar parts
--> FOAM Warning : 
    From function virtual void Foam::wedgePolyPatch::calcGeometry(Foam::PstreamBuffers&)
    in file meshes/polyMesh/polyPatches/constraint/wedge/wedgePolyPatch.C at line 70
    Wedge patch 'back' is not planar.
At local face at (0.000316520033363325 0.00670573766696014 -0.000284993814207132) the normal (-3.35823174455363e-08 -0.0424617983386273 -0.999098091121111) differs from the average normal (1.55524974302567e-20 -0.0424616607547166 -0.999098096968515) by 2.00912966796458e-14
Either correct the patch or split it into planar parts
--> FOAM Warning : 
    From function virtual void Foam::wedgePolyPatch::calcGeometry(Foam::PstreamBuffers&)
    in file meshes/polyMesh/polyPatches/constraint/wedge/wedgePolyPatch.C at line 70
    Wedge patch 'back' is not planar.
At local face at (0.000320288040732515 0.0067855660216518 -0.000288386529752565) the normal (-2.55172059555257e-08 -0.0424617987186248 -0.999098091104962) differs from the average normal (1.55524974302567e-20 -0.0424616607547166 -0.999098096968515) by 1.9719549034568e-14
Either correct the patch or split it into planar parts
--> FOAM Warning : 
    From function virtual void Foam::wedgePolyPatch::calcGeometry(Foam::PstreamBuffers&)
    in file meshes/polyMesh/polyPatches/constraint/wedge/wedgePolyPatch.C at line 70
    Wedge patch 'back' is not planar.
At local face at (0.000324056049124454 0.00686539439801124 -0.000291779246218883) the normal (-1.76396553205601e-08 -0.0424617990897855 -0.999098091089187) differs from the average normal (1.55524974302567e-20 -0.0424616607547166 -0.999098096968515) by 1.94823152392952e-14
Either correct the patch or split it into planar parts
--> FOAM Warning : 
    From function virtual void Foam::wedgePolyPatch::calcGeometry(Foam::PstreamBuffers&)
    in file meshes/polyMesh/polyPatches/constraint/wedge/wedgePolyPatch.C at line 70
    Wedge patch 'back' is not planar.
At local face at (0.000327824058503876 0.00694522279529129 -0.000295171963574329) the normal (-9.94319758487937e-09 -0.0424617994524143 -0.999098091073776) differs from the average normal (1.55524974302567e-20 -0.0424616607547166 -0.999098096968515) by 1.93706664902737e-14
Either correct the patch or split it into planar parts
--> FOAM Warning : 
    From function virtual void Foam::wedgePolyPatch::calcGeometry(Foam::PstreamBuffers&)
    in file meshes/polyMesh/polyPatches/constraint/wedge/wedgePolyPatch.C at line 70
    Wedge patch 'back' is not planar.
At local face at (7.91567728573409e-05 0.00503431729551514 -0.000213958187402884) the normal (-2.6520307946891e-07 -0.0424618165810008 -0.999098090345773) differs from the average normal (1.55524974302567e-20 -0.0424616607547166 -0.999098096968515) by 9.46583649371582e-14
Either correct the patch or split it into planar parts
--> FOAM Warning : 
    From function virtual void Foam::wedgePolyPatch::calcGeometry(Foam::PstreamBuffers&)
    in file meshes/polyMesh/polyPatches/constraint/wedge/wedgePolyPatch.C at line 70
    Wedge patch 'back' is not planar.
At local face at (8.04131773246539e-05 0.00511422379084354 -0.000217354225603991) the normal (-2.50536817228927e-07 -0.0424618168111887 -0.999098090335994) differs from the average normal (1.55524974302567e-20 -0.0424616607547166 -0.999098096968515) by 8.71663096171339e-14
Either correct the patch or split it into planar parts
--> FOAM Warning : 
    From function virtual void Foam::wedgePolyPatch::calcGeometry(Foam::PstreamBuffers&)
    in file meshes/polyMesh/polyPatches/constraint/wedge/wedgePolyPatch.C at line 70
    Wedge patch 'back' is not planar.
At local face at (8.16695825909785e-05 0.0051941303369886 -0.000220750265964814) the normal (-2.36321825207799e-07 -0.0424618170342949 -0.999098090326516) differs from the average normal (1.55524974302567e-20 -0.0424616607547166 -0.999098096968515) by 8.03154278166254e-14
Either correct the patch or split it into planar parts
--> FOAM Warning : 
    From function virtual void Foam::wedgePolyPatch::calcGeometry(Foam::PstreamBuffers&)
    in file meshes/polyMesh/polyPatches/constraint/wedge/wedgePolyPatch.C at line 70
    Wedge patch 'back' is not planar.
At local face at (8.29259886199977e-05 0.00527403693164045 -0.000224146308387183) the normal (-2.22537590425874e-07 -0.0424618172506391 -0.999098090317324) differs from the average normal (1.55524974302567e-20 -0.0424616607547166 -0.999098096968515) by 7.40581912621521e-14
Either correct the patch or split it into planar parts
--> FOAM Warning : 
    From function virtual void Foam::wedgePolyPatch::calcGeometry(Foam::PstreamBuffers&)
    in file meshes/polyMesh/polyPatches/constraint/wedge/wedgePolyPatch.C at line 70
    Wedge patch 'back' is not planar.
At local face at (8.4182395377559e-05 0.00535394357262717 -0.000227542352778791) the normal (-2.09164824853176e-07 -0.0424618174605264 -0.999098090308407) differs from the average normal (1.55524974302567e-20 -0.0424616607547166 -0.999098096968515) by 6.83509918337348e-14
Either correct the patch or split it into planar parts
--> FOAM Warning : 
    From function virtual void Foam::wedgePolyPatch::calcGeometry(Foam::PstreamBuffers&)
    in file meshes/polyMesh/polyPatches/constraint/wedge/wedgePolyPatch.C at line 70
    Wedge patch 'back' is not planar.
At local face at (8.54388028315221e-05 0.00543385025790455 -0.000230938399052758) the normal (-1.96185376315489e-07 -0.0424618176642403 -0.999098090299751) differs from the average normal (1.55524974302567e-20 -0.0424616607547166 -0.999098096968515) by 6.31537729405123e-14
Either correct the patch or split it into planar parts
--> FOAM Warning : 
    From function virtual void Foam::wedgePolyPatch::calcGeometry(Foam::PstreamBuffers&)
    in file meshes/polyMesh/polyPatches/constraint/wedge/wedgePolyPatch.C at line 70
    Wedge patch 'back' is not planar.
At local face at (8.66952109516084e-05 0.00551375698554692 -0.000234334447127245) the normal (-1.83582143814261e-07 -0.0424618178620482 -0.999098090291347) differs from the average normal (1.55524974302567e-20 -0.0424616607547166 -0.999098096968515) by 5.84297017545832e-14
Either correct the patch or split it into planar parts
--> FOAM Warning : 
    From function virtual void Foam::wedgePolyPatch::calcGeometry(Foam::PstreamBuffers&)
    in file meshes/polyMesh/polyPatches/constraint/wedge/wedgePolyPatch.C at line 70
    Wedge patch 'back' is not planar.
At local face at (8.79516197092695e-05 0.00559366375373864 -0.000237730496925084) the normal (-1.71339003316342e-07 -0.0424618180542063 -0.999098090283182) differs from the average normal (1.55524974302567e-20 -0.0424616607547166 -0.999098096968515) by 5.41448772105489e-14
Either correct the patch or split it into planar parts
--> FOAM Warning : 
    From function virtual void Foam::wedgePolyPatch::calcGeometry(Foam::PstreamBuffers&)
    in file meshes/polyMesh/polyPatches/constraint/wedge/wedgePolyPatch.C at line 70
    Wedge patch 'back' is not planar.
At local face at (8.92080290775655e-05 0.00567357056076636 -0.00024112654837346) the normal (-1.59440740391454e-07 -0.0424618182409509 -0.999098090275248) differs from the average normal (1.55524974302567e-20 -0.0424616607547166 -0.999098096968515) by 5.02680635198577e-14
Either correct the patch or split it into planar parts
--> FOAM Warning : 
    From function virtual void Foam::wedgePolyPatch::calcGeometry(Foam::PstreamBuffers&)
    in file meshes/polyMesh/polyPatches/constraint/wedge/wedgePolyPatch.C at line 70
    Wedge patch 'back' is not planar.
At local face at (9.04644390310543e-05 0.0057534774050119 -0.000244522601403599) the normal (-1.47872984746926e-07 -0.0424618184225068 -0.999098090267533) differs from the average normal (1.55524974302567e-20 -0.0424616607547166 -0.999098096968515) by 4.67704548414191e-14
Either correct the patch or split it into planar parts
--> FOAM Warning : 
    From function virtual void Foam::wedgePolyPatch::calcGeometry(Foam::PstreamBuffers&)
    in file meshes/polyMesh/polyPatches/constraint/wedge/wedgePolyPatch.C at line 70
    Wedge patch 'back' is not planar.
At local face at (9.17208495456852e-05 0.00583338428494577 -0.000247918655950497) the normal (-1.36622153823937e-07 -0.0424618185990907 -0.99909809026003) differs from the average normal (1.55524974302567e-20 -0.0424616607547166 -0.999098096968515) by 4.36254631173057e-14
Either correct the patch or split it into planar parts
--> FOAM Warning : 
    From function virtual void Foam::wedgePolyPatch::calcGeometry(Foam::PstreamBuffers&)
    in file meshes/polyMesh/polyPatches/constraint/wedge/wedgePolyPatch.C at line 70
    Wedge patch 'back' is not planar.
At local face at (9.29772605987106e-05 0.00591329119912115 -0.000251314711952664) the normal (-1.25675399783626e-07 -0.0424618187709006 -0.99909809025273) differs from the average normal (1.55524974302567e-20 -0.0424616607547166 -0.999098096968515) by 4.08085223018197e-14
Either correct the patch or split it into planar parts
--> FOAM Warning : 
    From function virtual void Foam::wedgePolyPatch::calcGeometry(Foam::PstreamBuffers&)
    in file meshes/polyMesh/polyPatches/constraint/wedge/wedgePolyPatch.C at line 70
    Wedge patch 'back' is not planar.
At local face at (9.42336721685948e-05 0.00599319814616837 -0.00025471076935189) the normal (-1.15020558916137e-07 -0.0424618189381292 -0.999098090245624) differs from the average normal (1.55524974302567e-20 -0.0424616607547166 -0.999098096968515) by 3.82969182625217e-14
Either correct the patch or split it into planar parts
--> FOAM Warning : 
    From function virtual void Foam::wedgePolyPatch::calcGeometry(Foam::PstreamBuffers&)
    in file meshes/polyMesh/polyPatches/constraint/wedge/wedgePolyPatch.C at line 70
    Wedge patch 'back' is not planar.
At local face at (9.54900842349339e-05 0.00607310512478986 -0.000258106828093027) the normal (-1.04646108756402e-07 -0.0424618191009569 -0.999098090238705) differs from the average normal (1.55524974302567e-20 -0.0424616607547166 -0.999098096968515) by 3.60696302442373e-14
Either correct the patch or split it into planar parts
--> FOAM Warning : 
    From function virtual void Foam::wedgePolyPatch::calcGeometry(Foam::PstreamBuffers&)
    in file meshes/polyMesh/polyPatches/constraint/wedge/wedgePolyPatch.C at line 70
    Wedge patch 'back' is not planar.
At local face at (9.67464967783873e-05 0.00615301213375545 -0.000261502888123793) the normal (-9.45411248269615e-08 -0.0424618192595563 -0.999098090231965) differs from the average normal (1.55524974302567e-20 -0.0424616607547166 -0.999098096968515) by 3.41071895990207e-14
Either correct the patch or split it into planar parts
--> FOAM Warning : 
    From function virtual void Foam::wedgePolyPatch::calcGeometry(Foam::PstreamBuffers&)
    in file meshes/polyMesh/polyPatches/constraint/wedge/wedgePolyPatch.C at line 70
    Wedge patch 'back' is not planar.
At local face at (9.80029097806034e-05 0.00623291917189807 -0.000264898949394587) the normal (-8.46952427004657e-08 -0.0424618194140864 -0.999098090225398) differs from the average normal (1.55524974302567e-20 -0.0424616607547166 -0.999098096968515) by 3.23915493984144e-14
Either correct the patch or split it into planar parts
--> FOAM Warning : 
    From function virtual void Foam::wedgePolyPatch::calcGeometry(Foam::PstreamBuffers&)
    in file meshes/polyMesh/polyPatches/constraint/wedge/wedgePolyPatch.C at line 70
    Wedge patch 'back' is not planar.
At local face at (9.92593232241609e-05 0.00631282623810972 -0.000268295011858319) the normal (-7.50986235823999e-08 -0.0424618195647083 -0.999098090218998) differs from the average normal (1.55524974302567e-20 -0.0424616607547166 -0.999098096968515) by 3.09059727144574e-14
Either correct the patch or split it into planar parts
--> FOAM Warning : 
    From function virtual void Foam::wedgePolyPatch::calcGeometry(Foam::PstreamBuffers&)
    in file meshes/polyMesh/polyPatches/constraint/wedge/wedgePolyPatch.C at line 70
    Wedge patch 'back' is not planar.
At local face at (0.00010051573709251 0.00639273333133782 -0.000271691075470254) the normal (-6.57419201862186e-08 -0.0424618197115618 -0.999098090212757) differs from the average normal (1.55524974302567e-20 -0.0424616607547166 -0.999098096968515) by 2.9634918995534e-14
Either correct the patch or split it into planar parts
--> FOAM Warning : 
    From function virtual void Foam::wedgePolyPatch::calcGeometry(Foam::PstreamBuffers&)
    in file meshes/polyMesh/polyPatches/constraint/wedge/wedgePolyPatch.C at line 70
    Wedge patch 'back' is not planar.
At local face at (0.000101772151369917 0.00647264045058176 -0.000275087140187866) the normal (-5.66162463876332e-08 -0.0424618198547895 -0.999098090206671) differs from the average normal (1.55524974302567e-20 -0.0424616607547166 -0.999098096968515) by 2.85639551111146e-14
Either correct the patch or split it into planar parts
--> FOAM Warning : 
    From function virtual void Foam::wedgePolyPatch::calcGeometry(Foam::PstreamBuffers&)
    in file meshes/polyMesh/polyPatches/constraint/wedge/wedgePolyPatch.C at line 70
    Wedge patch 'back' is not planar.
At local face at (0.000103028566041417 0.00655254759488973 -0.000278483205970704) the normal (-4.77131502107027e-08 -0.042461819994525 -0.999098090200732) differs from the average normal (1.55524974302567e-20 -0.0424616607547166 -0.999098096968515) by 2.76796641621282e-14
Either correct the patch or split it into planar parts
--> FOAM Warning : 
    From function virtual void Foam::wedgePolyPatch::calcGeometry(Foam::PstreamBuffers&)
    in file meshes/polyMesh/polyPatches/constraint/wedge/wedgePolyPatch.C at line 70
    Wedge patch 'back' is not planar.
At local face at (0.000104284981092766 0.00663245476335581 -0.000281879272780265) the normal (-3.90245866019936e-08 -0.0424618201308925 -0.999098090194937) differs from the average normal (1.55524974302567e-20 -0.0424616607547166 -0.999098096968515) by 2.69695651677437e-14
Either correct the patch or split it into planar parts
--> FOAM Warning : 
    From function virtual void Foam::wedgePolyPatch::calcGeometry(Foam::PstreamBuffers&)
    in file meshes/polyMesh/polyPatches/constraint/wedge/wedgePolyPatch.C at line 70
    Wedge patch 'back' is not planar.
At local face at (0.000105541396510396 0.00671236195511722 -0.000285275340579881) the normal (-3.05428932378257e-08 -0.0424618202640138 -0.99909809018928) differs from the average normal (1.55524974302567e-20 -0.0424616607547166 -0.999098096968515) by 2.64220422792734e-14
Either correct the patch or split it into planar parts
--> FOAM Warning : 
    From function virtual void Foam::wedgePolyPatch::calcGeometry(Foam::PstreamBuffers&)
    in file meshes/polyMesh/polyPatches/constraint/wedge/wedgePolyPatch.C at line 70
    Wedge patch 'back' is not planar.
At local face at (0.000106797812281382 0.00679226916935175 -0.000288671409334608) the normal (-2.22607689941224e-08 -0.0424618203940017 -0.999098090183755) differs from the average normal (1.55524974302567e-20 -0.0424616607547166 -0.999098096968515) by 2.60262761538597e-14
Either correct the patch or split it into planar parts
--> FOAM Warning : 
    From function virtual void Foam::wedgePolyPatch::calcGeometry(Foam::PstreamBuffers&)
    in file meshes/polyMesh/polyPatches/constraint/wedge/wedgePolyPatch.C at line 70
    Wedge patch 'back' is not planar.
At local face at (0.000108054228393397 0.00687217640527546 -0.000292067479011128) the normal (-1.41712522311568e-08 -0.0424618205209677 -0.999098090178359) differs from the average normal (1.55524974302567e-20 -0.0424616607547166 -0.999098096968515) by 2.57721856005956e-14
Either correct the patch or split it into planar parts
--> FOAM Warning : 
    From function virtual void Foam::wedgePolyPatch::calcGeometry(Foam::PstreamBuffers&)
    in file meshes/polyMesh/polyPatches/constraint/wedge/wedgePolyPatch.C at line 70
    Wedge patch 'back' is not planar.
At local face at (0.000109310644834679 0.00695208366214046 -0.000295463549577657) the normal (-6.26770155173974e-09 -0.0424618206450149 -0.999098090173087) differs from the average normal (1.55524974302567e-20 -0.0424616607547166 -0.999098096968515) by 2.56503694206307e-14
Either correct the patch or split it into planar parts

Writing polyMesh
----------------
Mesh Information
----------------
  boundingBox: (-0.1 0 -0.000425) (0.1 0.01 0.000425)
  nPoints: 21520
  nCells: 10600
  nFaces: 42490
  nInternalFaces: 20970
----------------
Patches
----------------
  patch 0 (start: 20970 size: 40) name: inlet
  patch 1 (start: 21010 size: 140) name: walls
  patch 2 (start: 21150 size: 10600) name: front
  patch 3 (start: 31750 size: 10600) name: back
  patch 4 (start: 42350 size: 100) name: sphere
  patch 5 (start: 42450 size: 40) name: outlet
  patch 6 (start: 42490 size: 0) name: axis

End

