/*---------------------------------------------------------------------------*\
  =========                 |
  \\      /  F ield         | OpenFOAM: The Open Source CFD Toolbox
   \\    /   O peration     | Website:  https://openfoam.org
    \\  /    A nd           | Version:  9
     \\/     M anipulation  |
\*---------------------------------------------------------------------------*/
Build  : 9-c96968adf6d8
Exec   : rheoFoam
Date   : Aug 31 2022
Time   : 14:58:41
Host   : "clove-ZenBook-UX535LI-UX535LI"
PID    : 9068
I/O    : uncollated
Case   : /home/clove/rheoTool/of90/custom_models/cyl_modified_mesh/Oldroyd-BLog
nProcs : 1
sigFpe : Enabling floating point exception trapping (FOAM_SIGFPE).
fileModificationChecking : Monitoring run-time modified files using timeStampMaster (fileModificationSkew 10)
allowSystemOperations : Allowing user-supplied system call operations

// * * * * * * * * * * * * * * * * * * * * * * * * * * * * * * * * * * * * * //
Create time

Create mesh for time = 0


SIMPLE: No convergence criteria found


SIMPLE: No convergence criteria found


SIMPLE: Operating solver in transient mode with 1 outer corrector
SIMPLE: Operating solver in PISO mode


Reading field p

Reading field U

Reading/calculating face flux field phi

Selecting constitutive equation Oldroyd-BLog
Selecting thermoFunction: Constant
Selecting thermoFunction: Constant
No MRF models present

No fvModels present
No fvConstraints present
Courant Number mean: 0.0010852288778 max: 0.0350674748354

Starting time loop

Using dynamicCode for coded outputTest at line 58 in "/home/clove/rheoTool/of90/custom_models/cyl_modified_mesh/Oldroyd-BLog/system/controlDict/functions/outputTest"
Creating new library in "dynamicCode/outputTest/platforms/linux64GccDPInt32Opt/lib/liboutputTest_ba4dbdd3ab8bce4f927d847044fc82b1a9aedbbf.so"
"/opt/openfoam9/etc/codeTemplates/dynamicCode/codedFunctionObjectTemplate.C" "/home/clove/rheoTool/of90/custom_models/cyl_modified_mesh/Oldroyd-BLog/dynamicCode/outputTest/codedFunctionObjectTemplate.C"
"/opt/openfoam9/etc/codeTemplates/dynamicCode/codedFunctionObjectTemplate.H" "/home/clove/rheoTool/of90/custom_models/cyl_modified_mesh/Oldroyd-BLog/dynamicCode/outputTest/codedFunctionObjectTemplate.H"
Invoking "wmake -s libso /home/clove/rheoTool/of90/custom_models/cyl_modified_mesh/Oldroyd-BLog/dynamicCode/outputTest"
wmake libso /home/clove/rheoTool/of90/custom_models/cyl_modified_mesh/Oldroyd-BLog/dynamicCode/outputTest
    ln: ./lnInclude
    wmkdep: codedFunctionObjectTemplate.C
    Ctoo: codedFunctionObjectTemplate.C
    ld: /home/clove/rheoTool/of90/custom_models/cyl_modified_mesh/Oldroyd-BLog/dynamicCode/outputTest/../platforms/linux64GccDPInt32Opt/lib/liboutputTest_ba4dbdd3ab8bce4f927d847044fc82b1a9aedbbf.so
Courant Number mean: 0.0010852288778 max: 0.0350674748354
Time = 0.02

Inner iteration:  0

DILUPBiCG:  Solving for thetaxx, Initial residual = 1, Final residual = 4.85722573274e-17, No Iterations 1
DILUPBiCG:  Solving for thetayy, Initial residual = 0, Final residual = 0, No Iterations 0
DILUPBiCG:  Solving for thetayz, Initial residual = 0, Final residual = 0, No Iterations 0
DILUPBiCG:  Solving for thetazz, Initial residual = 0, Final residual = 0, No Iterations 0
Coupled system: p, U
Petsc:preonly:lu: Solving coupled for p, Initial residual = 1, Final residual = 4.06863194534e-16, No Iterations 1
Petsc:preonly:lu: Solving coupled for Ux, Initial residual = 1, Final residual = 6.07184870406e-15, No Iterations 1
time step continuity errors : sum local = 0.000986343120493, global = 3.73351681248e-17, cumulative = 3.73351681248e-17
ExecutionTime = 0.28 s  ClockTime = 8 s

Courant Number mean: 0.499690776275 max: 8.64075783867
Time = 0.04

Inner iteration:  0

DILUPBiCG:  Solving for thetaxx, Initial residual = 0.445236606101, Final residual = 3.11116527135e-11, No Iterations 11
DILUPBiCG:  Solving for thetayy, Initial residual = 0, Final residual = 0, No Iterations 0
DILUPBiCG:  Solving for thetayz, Initial residual = 0, Final residual = 0, No Iterations 0
DILUPBiCG:  Solving for thetazz, Initial residual = 0, Final residual = 0, No Iterations 0
Coupled system: p, U
Petsc:preonly:lu: Solving coupled for p, Initial residual = 0.0284619887318, Final residual = 4.26414068696e-16, No Iterations 1
Petsc:preonly:lu: Solving coupled for Ux, Initial residual = 0.234680965641, Final residual = 4.40728915615e-15, No Iterations 1
time step continuity errors : sum local = 0.000727710261066, global = 1.77187677688e-17, cumulative = 5.50539358935e-17
ExecutionTime = 0.35 s  ClockTime = 8 s

Courant Number mean: 0.520219229379 max: 10.5028680686
Time = 0.06

Inner iteration:  0

DILUPBiCG:  Solving for thetaxx, Initial residual = 0.266837836841, Final residual = 1.32762982278e-11, No Iterations 12
DILUPBiCG:  Solving for thetayy, Initial residual = 0, Final residual = 0, No Iterations 0
DILUPBiCG:  Solving for thetayz, Initial residual = 0, Final residual = 0, No Iterations 0
DILUPBiCG:  Solving for thetazz, Initial residual = 0, Final residual = 0, No Iterations 0
Coupled system: p, U
Petsc:preonly:lu: Solving coupled for p, Initial residual = 0.0352336067382, Final residual = 3.9302132118e-16, No Iterations 1
Petsc:preonly:lu: Solving coupled for Ux, Initial residual = 0.0656400028414, Final residual = 3.86557679587e-15, No Iterations 1
time step continuity errors : sum local = 0.000446650528878, global = 1.72028547922e-17, cumulative = 7.22567906857e-17
ExecutionTime = 0.43 s  ClockTime = 8 s

Courant Number mean: 0.52490110849 max: 11.2433253507
Time = 0.08

Inner iteration:  0

DILUPBiCG:  Solving for thetaxx, Initial residual = 0.186183816333, Final residual = 2.04770692748e-11, No Iterations 12
DILUPBiCG:  Solving for thetayy, Initial residual = 0, Final residual = 0, No Iterations 0
DILUPBiCG:  Solving for thetayz, Initial residual = 0, Final residual = 0, No Iterations 0
DILUPBiCG:  Solving for thetazz, Initial residual = 0, Final residual = 0, No Iterations 0
Coupled system: p, U
Petsc:preonly:lu: Solving coupled for p, Initial residual = 0.00670790935471, Final residual = 3.60554012394e-16, No Iterations 1
Petsc:preonly:lu: Solving coupled for Ux, Initial residual = 0.0304999945834, Final residual = 4.07703143754e-15, No Iterations 1
time step continuity errors : sum local = 0.00033939824869, global = 1.84002588368e-17, cumulative = 9.06570495225e-17
ExecutionTime = 0.46 s  ClockTime = 8 s

Courant Number mean: 0.521408417452 max: 11.6024748739
Time = 0.1

Inner iteration:  0

DILUPBiCG:  Solving for thetaxx, Initial residual = 0.141180669804, Final residual = 5.19597894127e-11, No Iterations 12
DILUPBiCG:  Solving for thetayy, Initial residual = 0, Final residual = 0, No Iterations 0
DILUPBiCG:  Solving for thetayz, Initial residual = 0, Final residual = 0, No Iterations 0
DILUPBiCG:  Solving for thetazz, Initial residual = 0, Final residual = 0, No Iterations 0
Coupled system: p, U
Petsc:preonly:lu: Solving coupled for p, Initial residual = 0.0100246200568, Final residual = 3.65577790792e-16, No Iterations 1
Petsc:preonly:lu: Solving coupled for Ux, Initial residual = 0.0240207575053, Final residual = 4.33899790318e-15, No Iterations 1
time step continuity errors : sum local = 0.000305251316082, global = 2.36356915998e-17, cumulative = 1.14292741122e-16
ExecutionTime = 0.48 s  ClockTime = 8 s

Courant Number mean: 0.520359055571 max: 11.8454242483
Time = 0.12

Inner iteration:  0

DILUPBiCG:  Solving for thetaxx, Initial residual = 0.111436537051, Final residual = 4.16455488477e-11, No Iterations 12
DILUPBiCG:  Solving for thetayy, Initial residual = 0, Final residual = 0, No Iterations 0
DILUPBiCG:  Solving for thetayz, Initial residual = 0, Final residual = 0, No Iterations 0
DILUPBiCG:  Solving for thetazz, Initial residual = 0, Final residual = 0, No Iterations 0
Coupled system: p, U
Petsc:preonly:lu: Solving coupled for p, Initial residual = 0.00951884662181, Final residual = 3.51241520828e-16, No Iterations 1
Petsc:preonly:lu: Solving coupled for Ux, Initial residual = 0.01590755436, Final residual = 4.67587642031e-15, No Iterations 1
time step continuity errors : sum local = 0.000270803500633, global = 2.99154811859e-17, cumulative = 1.44208222308e-16
ExecutionTime = 0.51 s  ClockTime = 8 s

Courant Number mean: 0.518934244326 max: 12.1002612586
Time = 0.14

Inner iteration:  0

DILUPBiCG:  Solving for thetaxx, Initial residual = 0.0893140219623, Final residual = 7.22073562679e-11, No Iterations 12
DILUPBiCG:  Solving for thetayy, Initial residual = 0, Final residual = 0, No Iterations 0
DILUPBiCG:  Solving for thetayz, Initial residual = 0, Final residual = 0, No Iterations 0
DILUPBiCG:  Solving for thetazz, Initial residual = 0, Final residual = 0, No Iterations 0
Coupled system: p, U
Petsc:preonly:lu: Solving coupled for p, Initial residual = 0.00787631172155, Final residual = 3.74532906155e-16, No Iterations 1
Petsc:preonly:lu: Solving coupled for Ux, Initial residual = 0.0145448570027, Final residual = 4.87298516945e-15, No Iterations 1
time step continuity errors : sum local = 0.000246352339071, global = 3.34024715166e-17, cumulative = 1.77610693825e-16
ExecutionTime = 0.53 s  ClockTime = 8 s

Courant Number mean: 0.518080793702 max: 12.2990134929
Time = 0.16

Inner iteration:  0

DILUPBiCG:  Solving for thetaxx, Initial residual = 0.0739243324813, Final residual = 3.73360617258e-11, No Iterations 13
DILUPBiCG:  Solving for thetayy, Initial residual = 0, Final residual = 0, No Iterations 0
DILUPBiCG:  Solving for thetayz, Initial residual = 0, Final residual = 0, No Iterations 0
DILUPBiCG:  Solving for thetazz, Initial residual = 0, Final residual = 0, No Iterations 0
Coupled system: p, U
Petsc:preonly:lu: Solving coupled for p, Initial residual = 0.00629445200938, Final residual = 3.72709502166e-16, No Iterations 1
Petsc:preonly:lu: Solving coupled for Ux, Initial residual = 0.0147603580916, Final residual = 5.1803239152e-15, No Iterations 1
time step continuity errors : sum local = 0.000231452791678, global = 3.89471204093e-17, cumulative = 2.16557814234e-16
ExecutionTime = 0.56 s  ClockTime = 8 s

Courant Number mean: 0.519403957472 max: 12.5669746664
Time = 0.18

Inner iteration:  0

DILUPBiCG:  Solving for thetaxx, Initial residual = 0.0642873805874, Final residual = 3.72903588638e-11, No Iterations 13
DILUPBiCG:  Solving for thetayy, Initial residual = 0, Final residual = 0, No Iterations 0
DILUPBiCG:  Solving for thetayz, Initial residual = 0, Final residual = 0, No Iterations 0
DILUPBiCG:  Solving for thetazz, Initial residual = 0, Final residual = 0, No Iterations 0
Coupled system: p, U
Petsc:preonly:lu: Solving coupled for p, Initial residual = 0.00526703141314, Final residual = 3.62267336349e-16, No Iterations 1
Petsc:preonly:lu: Solving coupled for Ux, Initial residual = 0.0129388939877, Final residual = 5.45966344048e-15, No Iterations 1
time step continuity errors : sum local = 0.000223528848411, global = 4.82712633397e-17, cumulative = 2.64829077574e-16
ExecutionTime = 0.58 s  ClockTime = 8 s

Courant Number mean: 0.521939922027 max: 12.8424391217
Time = 0.2

Inner iteration:  0

DILUPBiCG:  Solving for thetaxx, Initial residual = 0.057720027069, Final residual = 4.03778430724e-11, No Iterations 13
DILUPBiCG:  Solving for thetayy, Initial residual = 0, Final residual = 0, No Iterations 0
DILUPBiCG:  Solving for thetayz, Initial residual = 0, Final residual = 0, No Iterations 0
DILUPBiCG:  Solving for thetazz, Initial residual = 0, Final residual = 0, No Iterations 0
Coupled system: p, U
Petsc:preonly:lu: Solving coupled for p, Initial residual = 0.00454594870406, Final residual = 3.64918398299e-16, No Iterations 1
Petsc:preonly:lu: Solving coupled for Ux, Initial residual = 0.0104650780031, Final residual = 5.73409731626e-15, No Iterations 1
time step continuity errors : sum local = 0.000219819998503, global = 5.529711125e-17, cumulative = 3.20126188824e-16
ExecutionTime = 0.61 s  ClockTime = 8 s

Courant Number mean: 0.524427006877 max: 13.1209590062
Time = 0.22

Inner iteration:  0

DILUPBiCG:  Solving for thetaxx, Initial residual = 0.0526341000054, Final residual = 6.8037664191e-12, No Iterations 14
DILUPBiCG:  Solving for thetayy, Initial residual = 0, Final residual = 0, No Iterations 0
DILUPBiCG:  Solving for thetayz, Initial residual = 0, Final residual = 0, No Iterations 0
DILUPBiCG:  Solving for thetazz, Initial residual = 0, Final residual = 0, No Iterations 0
Coupled system: p, U
Petsc:preonly:lu: Solving coupled for p, Initial residual = 0.00396426463771, Final residual = 3.60211709367e-16, No Iterations 1
Petsc:preonly:lu: Solving coupled for Ux, Initial residual = 0.00897224253703, Final residual = 6.05963586118e-15, No Iterations 1
time step continuity errors : sum local = 0.000218112896808, global = 4.70866116981e-17, cumulative = 3.67212800522e-16
ExecutionTime = 0.63 s  ClockTime = 8 s

Courant Number mean: 0.526797320328 max: 13.3988993684
Time = 0.24

Inner iteration:  0

DILUPBiCG:  Solving for thetaxx, Initial residual = 0.0482143323429, Final residual = 7.57518377014e-12, No Iterations 14
DILUPBiCG:  Solving for thetayy, Initial residual = 0, Final residual = 0, No Iterations 0
DILUPBiCG:  Solving for thetayz, Initial residual = 0, Final residual = 0, No Iterations 0
DILUPBiCG:  Solving for thetazz, Initial residual = 0, Final residual = 0, No Iterations 0
Coupled system: p, U
Petsc:preonly:lu: Solving coupled for p, Initial residual = 0.00347330249403, Final residual = 3.70576043054e-16, No Iterations 1
Petsc:preonly:lu: Solving coupled for Ux, Initial residual = 0.00840227072861, Final residual = 6.22045378455e-15, No Iterations 1
time step continuity errors : sum local = 0.000216741357402, global = 5.33283536582e-17, cumulative = 4.2054115418e-16
ExecutionTime = 0.66 s  ClockTime = 8 s

Courant Number mean: 0.529046725851 max: 13.6654040879
Time = 0.26

Inner iteration:  0

DILUPBiCG:  Solving for thetaxx, Initial residual = 0.0443775962807, Final residual = 1.11718797375e-11, No Iterations 14
DILUPBiCG:  Solving for thetayy, Initial residual = 0, Final residual = 0, No Iterations 0
DILUPBiCG:  Solving for thetayz, Initial residual = 0, Final residual = 0, No Iterations 0
DILUPBiCG:  Solving for thetazz, Initial residual = 0, Final residual = 0, No Iterations 0
Coupled system: p, U
Petsc:preonly:lu: Solving coupled for p, Initial residual = 0.00307176240849, Final residual = 3.58847514484e-16, No Iterations 1
Petsc:preonly:lu: Solving coupled for Ux, Initial residual = 0.00763284399077, Final residual = 6.39301520628e-15, No Iterations 1
time step continuity errors : sum local = 0.000215212282687, global = 6.19161020728e-17, cumulative = 4.82457256253e-16
ExecutionTime = 0.68 s  ClockTime = 8 s

Courant Number mean: 0.53108588166 max: 13.9598253869
Time = 0.28

Inner iteration:  0

DILUPBiCG:  Solving for thetaxx, Initial residual = 0.0409130307428, Final residual = 5.098541938e-11, No Iterations 14
DILUPBiCG:  Solving for thetayy, Initial residual = 0, Final residual = 0, No Iterations 0
DILUPBiCG:  Solving for thetayz, Initial residual = 0, Final residual = 0, No Iterations 0
DILUPBiCG:  Solving for thetazz, Initial residual = 0, Final residual = 0, No Iterations 0
Coupled system: p, U
Petsc:preonly:lu: Solving coupled for p, Initial residual = 0.00275206029814, Final residual = 3.49689694974e-16, No Iterations 1
Petsc:preonly:lu: Solving coupled for Ux, Initial residual = 0.00672427034259, Final residual = 6.59429826003e-15, No Iterations 1
time step continuity errors : sum local = 0.00021350866455, global = 5.99943343241e-17, cumulative = 5.42451590577e-16
ExecutionTime = 0.71 s  ClockTime = 9 s

Courant Number mean: 0.532838894667 max: 14.243042006
Time = 0.3

Inner iteration:  0

DILUPBiCG:  Solving for thetaxx, Initial residual = 0.0377749582961, Final residual = 5.62138127575e-11, No Iterations 14
DILUPBiCG:  Solving for thetayy, Initial residual = 0, Final residual = 0, No Iterations 0
DILUPBiCG:  Solving for thetayz, Initial residual = 0, Final residual = 0, No Iterations 0
DILUPBiCG:  Solving for thetazz, Initial residual = 0, Final residual = 0, No Iterations 0
Coupled system: p, U
Petsc:preonly:lu: Solving coupled for p, Initial residual = 0.00249699562873, Final residual = 3.71033888387e-16, No Iterations 1
Petsc:preonly:lu: Solving coupled for Ux, Initial residual = 0.00583944882116, Final residual = 6.75935938137e-15, No Iterations 1
time step continuity errors : sum local = 0.000211768202125, global = 7.94862937286e-17, cumulative = 6.21937884306e-16
ExecutionTime = 0.73 s  ClockTime = 9 s

Courant Number mean: 0.534279507158 max: 14.4918804265
Time = 0.32

Inner iteration:  0

DILUPBiCG:  Solving for thetaxx, Initial residual = 0.0349653893771, Final residual = 7.44782536638e-11, No Iterations 14
DILUPBiCG:  Solving for thetayy, Initial residual = 0, Final residual = 0, No Iterations 0
DILUPBiCG:  Solving for thetayz, Initial residual = 0, Final residual = 0, No Iterations 0
DILUPBiCG:  Solving for thetazz, Initial residual = 0, Final residual = 0, No Iterations 0
Coupled system: p, U
Petsc:preonly:lu: Solving coupled for p, Initial residual = 0.00228399016155, Final residual = 3.75885425143e-16, No Iterations 1
Petsc:preonly:lu: Solving coupled for Ux, Initial residual = 0.00512248733472, Final residual = 7.05970090787e-15, No Iterations 1
time step continuity errors : sum local = 0.000209881956701, global = 7.56105633083e-17, cumulative = 6.97548447614e-16
ExecutionTime = 0.76 s  ClockTime = 9 s

Courant Number mean: 0.535436822137 max: 14.7088812517
Time = 0.34

Inner iteration:  0

DILUPBiCG:  Solving for thetaxx, Initial residual = 0.0324859256882, Final residual = 6.89064613909e-11, No Iterations 15
DILUPBiCG:  Solving for thetayy, Initial residual = 0, Final residual = 0, No Iterations 0
DILUPBiCG:  Solving for thetayz, Initial residual = 0, Final residual = 0, No Iterations 0
DILUPBiCG:  Solving for thetazz, Initial residual = 0, Final residual = 0, No Iterations 0
Coupled system: p, U
Petsc:preonly:lu: Solving coupled for p, Initial residual = 0.00210326384571, Final residual = 3.59132920334e-16, No Iterations 1
Petsc:preonly:lu: Solving coupled for Ux, Initial residual = 0.00462816646129, Final residual = 7.24800495108e-15, No Iterations 1
time step continuity errors : sum local = 0.000207857792739, global = 7.55565547257e-17, cumulative = 7.7310500234e-16
ExecutionTime = 0.79 s  ClockTime = 9 s

Courant Number mean: 0.536404322346 max: 14.8988285634
Time = 0.36

Inner iteration:  0

DILUPBiCG:  Solving for thetaxx, Initial residual = 0.030218742661, Final residual = 9.10892628501e-11, No Iterations 15
DILUPBiCG:  Solving for thetayy, Initial residual = 0, Final residual = 0, No Iterations 0
DILUPBiCG:  Solving for thetayz, Initial residual = 0, Final residual = 0, No Iterations 0
DILUPBiCG:  Solving for thetazz, Initial residual = 0, Final residual = 0, No Iterations 0
Coupled system: p, U
Petsc:preonly:lu: Solving coupled for p, Initial residual = 0.0019468949782, Final residual = 3.56644810819e-16, No Iterations 1
Petsc:preonly:lu: Solving coupled for Ux, Initial residual = 0.00424964749633, Final residual = 7.4858199052e-15, No Iterations 1
time step continuity errors : sum local = 0.000205695732853, global = 7.93066993003e-17, cumulative = 8.5241170164e-16
ExecutionTime = 0.81 s  ClockTime = 9 s

Courant Number mean: 0.537248708535 max: 15.0668968409
Time = 0.38

Inner iteration:  0

DILUPBiCG:  Solving for thetaxx, Initial residual = 0.0281808575161, Final residual = 1.53406348888e-11, No Iterations 15
DILUPBiCG:  Solving for thetayy, Initial residual = 0, Final residual = 0, No Iterations 0
DILUPBiCG:  Solving for thetayz, Initial residual = 0, Final residual = 0, No Iterations 0
DILUPBiCG:  Solving for thetazz, Initial residual = 0, Final residual = 0, No Iterations 0
Coupled system: p, U
Petsc:preonly:lu: Solving coupled for p, Initial residual = 0.0018105100276, Final residual = 3.41347121416e-16, No Iterations 1
Petsc:preonly:lu: Solving coupled for Ux, Initial residual = 0.0039179417048, Final residual = 7.63020358473e-15, No Iterations 1
time step continuity errors : sum local = 0.000203405954335, global = 7.67646387815e-17, cumulative = 9.29176340421e-16
ExecutionTime = 0.84 s  ClockTime = 9 s

Courant Number mean: 0.537991550441 max: 15.2174686288
Time = 0.4

Inner iteration:  0

DILUPBiCG:  Solving for thetaxx, Initial residual = 0.0263526424983, Final residual = 2.64507478078e-11, No Iterations 16
DILUPBiCG:  Solving for thetayy, Initial residual = 0, Final residual = 0, No Iterations 0
DILUPBiCG:  Solving for thetayz, Initial residual = 0, Final residual = 0, No Iterations 0
DILUPBiCG:  Solving for thetazz, Initial residual = 0, Final residual = 0, No Iterations 0
Coupled system: p, U
Petsc:preonly:lu: Solving coupled for p, Initial residual = 0.00169171034857, Final residual = 3.53612906807e-16, No Iterations 1
Petsc:preonly:lu: Solving coupled for Ux, Initial residual = 0.00362533681869, Final residual = 7.66892108392e-15, No Iterations 1
time step continuity errors : sum local = 0.000200971129805, global = 8.80156520765e-17, cumulative = 1.0171919925e-15
ExecutionTime = 0.87 s  ClockTime = 9 s

Courant Number mean: 0.538648498976 max: 15.3537479843
Time = 0.42

Inner iteration:  0

DILUPBiCG:  Solving for thetaxx, Initial residual = 0.024673515552, Final residual = 2.77572691622e-11, No Iterations 16
DILUPBiCG:  Solving for thetayy, Initial residual = 0, Final residual = 0, No Iterations 0
DILUPBiCG:  Solving for thetayz, Initial residual = 0, Final residual = 0, No Iterations 0
DILUPBiCG:  Solving for thetazz, Initial residual = 0, Final residual = 0, No Iterations 0
Coupled system: p, U
Petsc:preonly:lu: Solving coupled for p, Initial residual = 0.00158553659967, Final residual = 3.55158058126e-16, No Iterations 1
Petsc:preonly:lu: Solving coupled for Ux, Initial residual = 0.00338035614671, Final residual = 7.9530535127e-15, No Iterations 1
time step continuity errors : sum local = 0.000198418290886, global = 9.50994782409e-17, cumulative = 1.11229147074e-15
ExecutionTime = 0.89 s  ClockTime = 9 s

Courant Number mean: 0.539232983496 max: 15.4779900632
Time = 0.44

Inner iteration:  0

DILUPBiCG:  Solving for thetaxx, Initial residual = 0.0231474016776, Final residual = 6.69223082697e-11, No Iterations 16
DILUPBiCG:  Solving for thetayy, Initial residual = 0, Final residual = 0, No Iterations 0
DILUPBiCG:  Solving for thetayz, Initial residual = 0, Final residual = 0, No Iterations 0
DILUPBiCG:  Solving for thetazz, Initial residual = 0, Final residual = 0, No Iterations 0
Coupled system: p, U
Petsc:preonly:lu: Solving coupled for p, Initial residual = 0.001490210313, Final residual = 3.54030480431e-16, No Iterations 1
Petsc:preonly:lu: Solving coupled for Ux, Initial residual = 0.00320085686537, Final residual = 8.25797010287e-15, No Iterations 1
time step continuity errors : sum local = 0.000195787977242, global = 8.80596581164e-17, cumulative = 1.20035112886e-15
ExecutionTime = 0.92 s  ClockTime = 9 s

Courant Number mean: 0.539749369524 max: 15.5918425773
Time = 0.46

Inner iteration:  0

DILUPBiCG:  Solving for thetaxx, Initial residual = 0.0217252570874, Final residual = 2.29639414635e-11, No Iterations 16
DILUPBiCG:  Solving for thetayy, Initial residual = 0, Final residual = 0, No Iterations 0
DILUPBiCG:  Solving for thetayz, Initial residual = 0, Final residual = 0, No Iterations 0
DILUPBiCG:  Solving for thetazz, Initial residual = 0, Final residual = 0, No Iterations 0
Coupled system: p, U
Petsc:preonly:lu: Solving coupled for p, Initial residual = 0.00140431525897, Final residual = 3.49438481375e-16, No Iterations 1
Petsc:preonly:lu: Solving coupled for Ux, Initial residual = 0.00306379483555, Final residual = 8.36117750196e-15, No Iterations 1
time step continuity errors : sum local = 0.000193137161947, global = 1.15320714605e-16, cumulative = 1.31567184346e-15
ExecutionTime = 0.95 s  ClockTime = 9 s

Courant Number mean: 0.54020349919 max: 15.6966045823
Time = 0.48

Inner iteration:  0

DILUPBiCG:  Solving for thetaxx, Initial residual = 0.0204757735894, Final residual = 5.26751248302e-11, No Iterations 16
DILUPBiCG:  Solving for thetayy, Initial residual = 0, Final residual = 0, No Iterations 0
DILUPBiCG:  Solving for thetayz, Initial residual = 0, Final residual = 0, No Iterations 0
DILUPBiCG:  Solving for thetazz, Initial residual = 0, Final residual = 0, No Iterations 0
Coupled system: p, U
Petsc:preonly:lu: Solving coupled for p, Initial residual = 0.00132674031048, Final residual = 3.71977208029e-16, No Iterations 1
Petsc:preonly:lu: Solving coupled for Ux, Initial residual = 0.00294869621315, Final residual = 8.71966936858e-15, No Iterations 1
time step continuity errors : sum local = 0.000190484546656, global = 1.01865383219e-16, cumulative = 1.41753722668e-15
ExecutionTime = 0.97 s  ClockTime = 9 s

Courant Number mean: 0.540610763228 max: 15.7933438555
Time = 0.5

Inner iteration:  0

DILUPBiCG:  Solving for thetaxx, Initial residual = 0.0193346191553, Final residual = 5.99516063047e-12, No Iterations 17
DILUPBiCG:  Solving for thetayy, Initial residual = 0, Final residual = 0, No Iterations 0
DILUPBiCG:  Solving for thetayz, Initial residual = 0, Final residual = 0, No Iterations 0
DILUPBiCG:  Solving for thetazz, Initial residual = 0, Final residual = 0, No Iterations 0
Coupled system: p, U
Petsc:preonly:lu: Solving coupled for p, Initial residual = 0.00125643183735, Final residual = 3.75978386415e-16, No Iterations 1
Petsc:preonly:lu: Solving coupled for Ux, Initial residual = 0.0028491574019, Final residual = 8.82718813592e-15, No Iterations 1
time step continuity errors : sum local = 0.000187833273001, global = 1.12878841296e-16, cumulative = 1.53041606798e-15
ExecutionTime = 1 s  ClockTime = 9 s

Courant Number mean: 0.540984051093 max: 15.8833564761
Time = 0.52

Inner iteration:  0

DILUPBiCG:  Solving for thetaxx, Initial residual = 0.0182716776601, Final residual = 3.61385903746e-11, No Iterations 16
DILUPBiCG:  Solving for thetayy, Initial residual = 0, Final residual = 0, No Iterations 0
DILUPBiCG:  Solving for thetayz, Initial residual = 0, Final residual = 0, No Iterations 0
DILUPBiCG:  Solving for thetazz, Initial residual = 0, Final residual = 0, No Iterations 0
Coupled system: p, U
Petsc:preonly:lu: Solving coupled for p, Initial residual = 0.0011924578601, Final residual = 3.68159213776e-16, No Iterations 1
Petsc:preonly:lu: Solving coupled for Ux, Initial residual = 0.00276100800859, Final residual = 8.65626038289e-15, No Iterations 1
time step continuity errors : sum local = 0.000185185216906, global = 1.20428953339e-16, cumulative = 1.65084502131e-15
ExecutionTime = 1.03 s  ClockTime = 9 s

Courant Number mean: 0.541332226719 max: 15.9677224525
Time = 0.54

Inner iteration:  0

DILUPBiCG:  Solving for thetaxx, Initial residual = 0.0173485662371, Final residual = 2.75462682751e-11, No Iterations 16
DILUPBiCG:  Solving for thetayy, Initial residual = 0, Final residual = 0, No Iterations 0
DILUPBiCG:  Solving for thetayz, Initial residual = 0, Final residual = 0, No Iterations 0
DILUPBiCG:  Solving for thetazz, Initial residual = 0, Final residual = 0, No Iterations 0
Coupled system: p, U
Petsc:preonly:lu: Solving coupled for p, Initial residual = 0.00113397285896, Final residual = 3.71117357706e-16, No Iterations 1
Petsc:preonly:lu: Solving coupled for Ux, Initial residual = 0.00268121107941, Final residual = 9.18619419467e-15, No Iterations 1
time step continuity errors : sum local = 0.000182561782688, global = 1.14349188867e-16, cumulative = 1.76519421018e-15
ExecutionTime = 1.05 s  ClockTime = 9 s

Courant Number mean: 0.541666211093 max: 16.0473940604
Time = 0.56

Inner iteration:  0

DILUPBiCG:  Solving for thetaxx, Initial residual = 0.0164867446844, Final residual = 9.73035538043e-11, No Iterations 15
DILUPBiCG:  Solving for thetayy, Initial residual = 0, Final residual = 0, No Iterations 0
DILUPBiCG:  Solving for thetayz, Initial residual = 0, Final residual = 0, No Iterations 0
DILUPBiCG:  Solving for thetazz, Initial residual = 0, Final residual = 0, No Iterations 0
Coupled system: p, U
Petsc:preonly:lu: Solving coupled for p, Initial residual = 0.00108027089102, Final residual = 3.57573711683e-16, No Iterations 1
Petsc:preonly:lu: Solving coupled for Ux, Initial residual = 0.00260790967998, Final residual = 9.19831056596e-15, No Iterations 1
time step continuity errors : sum local = 0.000179977996678, global = 1.21830059397e-16, cumulative = 1.88702426958e-15
ExecutionTime = 1.08 s  ClockTime = 9 s

Courant Number mean: 0.541990269314 max: 16.1234059408
Time = 0.58

Inner iteration:  0

DILUPBiCG:  Solving for thetaxx, Initial residual = 0.0157037730791, Final residual = 2.09726515775e-11, No Iterations 16
DILUPBiCG:  Solving for thetayy, Initial residual = 0, Final residual = 0, No Iterations 0
DILUPBiCG:  Solving for thetayz, Initial residual = 0, Final residual = 0, No Iterations 0
DILUPBiCG:  Solving for thetazz, Initial residual = 0, Final residual = 0, No Iterations 0
Coupled system: p, U
Petsc:preonly:lu: Solving coupled for p, Initial residual = 0.00103077734259, Final residual = 3.70045906714e-16, No Iterations 1
Petsc:preonly:lu: Solving coupled for Ux, Initial residual = 0.00254052866969, Final residual = 9.54520024249e-15, No Iterations 1
time step continuity errors : sum local = 0.00017742826703, global = 1.19324061898e-16, cumulative = 2.00634833148e-15
ExecutionTime = 1.11 s  ClockTime = 9 s

Courant Number mean: 0.542308254646 max: 16.1967386182
Time = 0.6

Inner iteration:  0

DILUPBiCG:  Solving for thetaxx, Initial residual = 0.0149371054951, Final residual = 2.25404306519e-11, No Iterations 16
DILUPBiCG:  Solving for thetayy, Initial residual = 0, Final residual = 0, No Iterations 0
DILUPBiCG:  Solving for thetayz, Initial residual = 0, Final residual = 0, No Iterations 0
DILUPBiCG:  Solving for thetazz, Initial residual = 0, Final residual = 0, No Iterations 0
Coupled system: p, U
Petsc:preonly:lu: Solving coupled for p, Initial residual = 0.000985003171347, Final residual = 3.46610137784e-16, No Iterations 1
Petsc:preonly:lu: Solving coupled for Ux, Initial residual = 0.002480762159, Final residual = 9.61301882818e-15, No Iterations 1
time step continuity errors : sum local = 0.000174947584499, global = 1.37668373048e-16, cumulative = 2.14401670452e-15
ExecutionTime = 1.13 s  ClockTime = 9 s

Courant Number mean: 0.542622798944 max: 16.2669949945
Time = 0.62

Inner iteration:  0

DILUPBiCG:  Solving for thetaxx, Initial residual = 0.0142909485173, Final residual = 2.38185016739e-11, No Iterations 16
DILUPBiCG:  Solving for thetayy, Initial residual = 0, Final residual = 0, No Iterations 0
DILUPBiCG:  Solving for thetayz, Initial residual = 0, Final residual = 0, No Iterations 0
DILUPBiCG:  Solving for thetazz, Initial residual = 0, Final residual = 0, No Iterations 0
Coupled system: p, U
Petsc:preonly:lu: Solving coupled for p, Initial residual = 0.000942545627464, Final residual = 3.60569312993e-16, No Iterations 1
Petsc:preonly:lu: Solving coupled for Ux, Initial residual = 0.00242376683056, Final residual = 9.89812262108e-15, No Iterations 1
time step continuity errors : sum local = 0.000172523072412, global = 1.38849686985e-16, cumulative = 2.28286639151e-15
ExecutionTime = 1.16 s  ClockTime = 9 s

Courant Number mean: 0.5429365509 max: 16.3354698328
Time = 0.64

Inner iteration:  0

DILUPBiCG:  Solving for thetaxx, Initial residual = 0.0136616090374, Final residual = 4.23867562247e-11, No Iterations 16
DILUPBiCG:  Solving for thetayy, Initial residual = 0, Final residual = 0, No Iterations 0
DILUPBiCG:  Solving for thetayz, Initial residual = 0, Final residual = 0, No Iterations 0
DILUPBiCG:  Solving for thetazz, Initial residual = 0, Final residual = 0, No Iterations 0
Coupled system: p, U
Petsc:preonly:lu: Solving coupled for p, Initial residual = 0.000903081454761, Final residual = 3.58792233707e-16, No Iterations 1
Petsc:preonly:lu: Solving coupled for Ux, Initial residual = 0.00236912950278, Final residual = 1.00731854109e-14, No Iterations 1
time step continuity errors : sum local = 0.000170146748763, global = 1.32961472377e-16, cumulative = 2.41582786389e-15
ExecutionTime = 1.19 s  ClockTime = 9 s

Courant Number mean: 0.543250545504 max: 16.4016334819
Time = 0.66

Inner iteration:  0

DILUPBiCG:  Solving for thetaxx, Initial residual = 0.0131181311938, Final residual = 4.66044408155e-11, No Iterations 16
DILUPBiCG:  Solving for thetayy, Initial residual = 0, Final residual = 0, No Iterations 0
DILUPBiCG:  Solving for thetayz, Initial residual = 0, Final residual = 0, No Iterations 0
DILUPBiCG:  Solving for thetazz, Initial residual = 0, Final residual = 0, No Iterations 0
Coupled system: p, U
Petsc:preonly:lu: Solving coupled for p, Initial residual = 0.000866318555498, Final residual = 3.63364362123e-16, No Iterations 1
Petsc:preonly:lu: Solving coupled for Ux, Initial residual = 0.00231363495427, Final residual = 1.00181526845e-14, No Iterations 1
time step continuity errors : sum local = 0.000167819743501, global = 1.05092819449e-16, cumulative = 2.52092068333e-15
ExecutionTime = 1.21 s  ClockTime = 9 s

Courant Number mean: 0.543563831886 max: 16.4708425174
Time = 0.68

Inner iteration:  0

DILUPBiCG:  Solving for thetaxx, Initial residual = 0.0125541682833, Final residual = 6.45408653956e-11, No Iterations 16
DILUPBiCG:  Solving for thetayy, Initial residual = 0, Final residual = 0, No Iterations 0
DILUPBiCG:  Solving for thetayz, Initial residual = 0, Final residual = 0, No Iterations 0
DILUPBiCG:  Solving for thetazz, Initial residual = 0, Final residual = 0, No Iterations 0
Coupled system: p, U
Petsc:preonly:lu: Solving coupled for p, Initial residual = 0.000831985807367, Final residual = 3.48854483502e-16, No Iterations 1
Petsc:preonly:lu: Solving coupled for Ux, Initial residual = 0.00225826674164, Final residual = 1.00924564968e-14, No Iterations 1
time step continuity errors : sum local = 0.000165547243713, global = 1.4537856438e-16, cumulative = 2.66629924771e-15
ExecutionTime = 1.24 s  ClockTime = 9 s

Courant Number mean: 0.543876004202 max: 16.5639872578
Time = 0.7

Inner iteration:  0

DILUPBiCG:  Solving for thetaxx, Initial residual = 0.0121012535786, Final residual = 5.4993069351e-11, No Iterations 16
DILUPBiCG:  Solving for thetayy, Initial residual = 0, Final residual = 0, No Iterations 0
DILUPBiCG:  Solving for thetayz, Initial residual = 0, Final residual = 0, No Iterations 0
DILUPBiCG:  Solving for thetazz, Initial residual = 0, Final residual = 0, No Iterations 0
Coupled system: p, U
Petsc:preonly:lu: Solving coupled for p, Initial residual = 0.000799864179296, Final residual = 3.61865878803e-16, No Iterations 1
Petsc:preonly:lu: Solving coupled for Ux, Initial residual = 0.00220194350327, Final residual = 1.02971384282e-14, No Iterations 1
time step continuity errors : sum local = 0.000163334506668, global = 1.63079447715e-16, cumulative = 2.82937869543e-15
ExecutionTime = 1.27 s  ClockTime = 9 s

Courant Number mean: 0.544188301382 max: 16.6572093632
Time = 0.72

Inner iteration:  0

DILUPBiCG:  Solving for thetaxx, Initial residual = 0.0116113035239, Final residual = 7.17555172817e-11, No Iterations 16
DILUPBiCG:  Solving for thetayy, Initial residual = 0, Final residual = 0, No Iterations 0
DILUPBiCG:  Solving for thetayz, Initial residual = 0, Final residual = 0, No Iterations 0
DILUPBiCG:  Solving for thetazz, Initial residual = 0, Final residual = 0, No Iterations 0
Coupled system: p, U
Petsc:preonly:lu: Solving coupled for p, Initial residual = 0.000769764877235, Final residual = 3.64457635708e-16, No Iterations 1
Petsc:preonly:lu: Solving coupled for Ux, Initial residual = 0.00215379879714, Final residual = 1.04222148624e-14, No Iterations 1
time step continuity errors : sum local = 0.000161173951483, global = 1.53019218209e-16, cumulative = 2.98239791364e-15
ExecutionTime = 1.29 s  ClockTime = 9 s

Courant Number mean: 0.544500702334 max: 16.7470985985
Time = 0.74

Inner iteration:  0

DILUPBiCG:  Solving for thetaxx, Initial residual = 0.0112486815674, Final residual = 5.40245437524e-11, No Iterations 16
DILUPBiCG:  Solving for thetayy, Initial residual = 0, Final residual = 0, No Iterations 0
DILUPBiCG:  Solving for thetayz, Initial residual = 0, Final residual = 0, No Iterations 0
DILUPBiCG:  Solving for thetazz, Initial residual = 0, Final residual = 0, No Iterations 0
Coupled system: p, U
Petsc:preonly:lu: Solving coupled for p, Initial residual = 0.000741489086758, Final residual = 3.60916396667e-16, No Iterations 1
Petsc:preonly:lu: Solving coupled for Ux, Initial residual = 0.00210668304178, Final residual = 1.06647099249e-14, No Iterations 1
time step continuity errors : sum local = 0.000159072065642, global = 1.34134432401e-16, cumulative = 3.11653234604e-15
ExecutionTime = 1.32 s  ClockTime = 9 s

Courant Number mean: 0.54481317945 max: 16.8373447017
Time = 0.76

Inner iteration:  0

DILUPBiCG:  Solving for thetaxx, Initial residual = 0.010798507168, Final residual = 2.44332356997e-11, No Iterations 17
DILUPBiCG:  Solving for thetayy, Initial residual = 0, Final residual = 0, No Iterations 0
DILUPBiCG:  Solving for thetayz, Initial residual = 0, Final residual = 0, No Iterations 0
DILUPBiCG:  Solving for thetazz, Initial residual = 0, Final residual = 0, No Iterations 0
Coupled system: p, U
Petsc:preonly:lu: Solving coupled for p, Initial residual = 0.000714901185111, Final residual = 3.52213724668e-16, No Iterations 1
Petsc:preonly:lu: Solving coupled for Ux, Initial residual = 0.00206383554966, Final residual = 1.08069455052e-14, No Iterations 1
time step continuity errors : sum local = 0.000157026180108, global = 1.51187475642e-16, cumulative = 3.26771982168e-15
ExecutionTime = 1.35 s  ClockTime = 9 s

Courant Number mean: 0.54512473386 max: 16.9243534725
Time = 0.78

Inner iteration:  0

DILUPBiCG:  Solving for thetaxx, Initial residual = 0.0104689358497, Final residual = 1.63039773783e-11, No Iterations 17
DILUPBiCG:  Solving for thetayy, Initial residual = 0, Final residual = 0, No Iterations 0
DILUPBiCG:  Solving for thetayz, Initial residual = 0, Final residual = 0, No Iterations 0
DILUPBiCG:  Solving for thetazz, Initial residual = 0, Final residual = 0, No Iterations 0
Coupled system: p, U
Petsc:preonly:lu: Solving coupled for p, Initial residual = 0.000689852551697, Final residual = 3.52738014984e-16, No Iterations 1
Petsc:preonly:lu: Solving coupled for Ux, Initial residual = 0.00202009841215, Final residual = 1.08173419049e-14, No Iterations 1
time step continuity errors : sum local = 0.000155033311685, global = 1.678105865e-16, cumulative = 3.43553040818e-15
ExecutionTime = 1.37 s  ClockTime = 9 s

Courant Number mean: 0.54543541547 max: 17.0119965254
Time = 0.8

Inner iteration:  0

DILUPBiCG:  Solving for thetaxx, Initial residual = 0.0100844369784, Final residual = 3.18491912177e-11, No Iterations 17
DILUPBiCG:  Solving for thetayy, Initial residual = 0, Final residual = 0, No Iterations 0
DILUPBiCG:  Solving for thetayz, Initial residual = 0, Final residual = 0, No Iterations 0
DILUPBiCG:  Solving for thetazz, Initial residual = 0, Final residual = 0, No Iterations 0
Coupled system: p, U
Petsc:preonly:lu: Solving coupled for p, Initial residual = 0.00066622135153, Final residual = 3.49734093884e-16, No Iterations 1
Petsc:preonly:lu: Solving coupled for Ux, Initial residual = 0.00198067115099, Final residual = 1.1109303622e-14, No Iterations 1
time step continuity errors : sum local = 0.000153087498184, global = 1.56050159147e-16, cumulative = 3.59158056733e-15
ExecutionTime = 1.4 s  ClockTime = 9 s

Courant Number mean: 0.545744661796 max: 17.0962318967
Time = 0.82

Inner iteration:  0

DILUPBiCG:  Solving for thetaxx, Initial residual = 0.00982470391377, Final residual = 1.91516541468e-11, No Iterations 17
DILUPBiCG:  Solving for thetayy, Initial residual = 0, Final residual = 0, No Iterations 0
DILUPBiCG:  Solving for thetayz, Initial residual = 0, Final residual = 0, No Iterations 0
DILUPBiCG:  Solving for thetazz, Initial residual = 0, Final residual = 0, No Iterations 0
Coupled system: p, U
Petsc:preonly:lu: Solving coupled for p, Initial residual = 0.000643883086521, Final residual = 3.50416607084e-16, No Iterations 1
Petsc:preonly:lu: Solving coupled for Ux, Initial residual = 0.00194115546023, Final residual = 1.12912201779e-14, No Iterations 1
time step continuity errors : sum local = 0.0001511940473, global = 1.64309649694e-16, cumulative = 3.75589021702e-15
ExecutionTime = 1.43 s  ClockTime = 9 s

Courant Number mean: 0.546053880777 max: 17.1814616716
Time = 0.84

Inner iteration:  0

DILUPBiCG:  Solving for thetaxx, Initial residual = 0.0094663777923, Final residual = 7.19390138679e-11, No Iterations 17
DILUPBiCG:  Solving for thetayy, Initial residual = 0, Final residual = 0, No Iterations 0
DILUPBiCG:  Solving for thetayz, Initial residual = 0, Final residual = 0, No Iterations 0
DILUPBiCG:  Solving for thetazz, Initial residual = 0, Final residual = 0, No Iterations 0
Coupled system: p, U
Petsc:preonly:lu: Solving coupled for p, Initial residual = 0.000622750285791, Final residual = 3.82208837327e-16, No Iterations 1
Petsc:preonly:lu: Solving coupled for Ux, Initial residual = 0.00190489849787, Final residual = 1.10645336503e-14, No Iterations 1
time step continuity errors : sum local = 0.000149334660685, global = 1.61652222809e-16, cumulative = 3.91754243983e-15
ExecutionTime = 1.45 s  ClockTime = 9 s

Courant Number mean: 0.546362716431 max: 17.2631813144
Time = 0.86

Inner iteration:  0

DILUPBiCG:  Solving for thetaxx, Initial residual = 0.00924175306998, Final residual = 2.41746454719e-11, No Iterations 17
DILUPBiCG:  Solving for thetayy, Initial residual = 0, Final residual = 0, No Iterations 0
DILUPBiCG:  Solving for thetayz, Initial residual = 0, Final residual = 0, No Iterations 0
DILUPBiCG:  Solving for thetazz, Initial residual = 0, Final residual = 0, No Iterations 0
Coupled system: p, U
Petsc:preonly:lu: Solving coupled for p, Initial residual = 0.00060272591947, Final residual = 3.61177464328e-16, No Iterations 1
Petsc:preonly:lu: Solving coupled for Ux, Initial residual = 0.00186677627319, Final residual = 1.10913470852e-14, No Iterations 1
time step continuity errors : sum local = 0.000147519097507, global = 1.50197713407e-16, cumulative = 4.06774015324e-15
ExecutionTime = 1.48 s  ClockTime = 9 s

Courant Number mean: 0.546670664801 max: 17.3461210251
Time = 0.88

Inner iteration:  0

DILUPBiCG:  Solving for thetaxx, Initial residual = 0.00891775329796, Final residual = 6.44385177893e-12, No Iterations 18
DILUPBiCG:  Solving for thetayy, Initial residual = 0, Final residual = 0, No Iterations 0
DILUPBiCG:  Solving for thetayz, Initial residual = 0, Final residual = 0, No Iterations 0
DILUPBiCG:  Solving for thetazz, Initial residual = 0, Final residual = 0, No Iterations 0
Coupled system: p, U
Petsc:preonly:lu: Solving coupled for p, Initial residual = 0.00058373580034, Final residual = 3.55060107927e-16, No Iterations 1
Petsc:preonly:lu: Solving coupled for Ux, Initial residual = 0.00183240462301, Final residual = 1.13569209307e-14, No Iterations 1
time step continuity errors : sum local = 0.000145737415018, global = 1.52623466274e-16, cumulative = 4.22036361951e-15
ExecutionTime = 1.51 s  ClockTime = 9 s

Courant Number mean: 0.546976756377 max: 17.4253106782
Time = 0.9

Inner iteration:  0

DILUPBiCG:  Solving for thetaxx, Initial residual = 0.00872725607416, Final residual = 8.78595845358e-11, No Iterations 17
DILUPBiCG:  Solving for thetayy, Initial residual = 0, Final residual = 0, No Iterations 0
DILUPBiCG:  Solving for thetayz, Initial residual = 0, Final residual = 0, No Iterations 0
DILUPBiCG:  Solving for thetazz, Initial residual = 0, Final residual = 0, No Iterations 0
Coupled system: p, U
Petsc:preonly:lu: Solving coupled for p, Initial residual = 0.000565705162754, Final residual = 3.45494676538e-16, No Iterations 1
Petsc:preonly:lu: Solving coupled for Ux, Initial residual = 0.00179633635596, Final residual = 1.19176771699e-14, No Iterations 1
time step continuity errors : sum local = 0.000143993284061, global = 1.83163255403e-16, cumulative = 4.40352687491e-15
ExecutionTime = 1.53 s  ClockTime = 9 s

Courant Number mean: 0.547280520966 max: 17.5061417877
Time = 0.92

Inner iteration:  0

DILUPBiCG:  Solving for thetaxx, Initial residual = 0.00842915869433, Final residual = 1.65237480462e-11, No Iterations 18
DILUPBiCG:  Solving for thetayy, Initial residual = 0, Final residual = 0, No Iterations 0
DILUPBiCG:  Solving for thetayz, Initial residual = 0, Final residual = 0, No Iterations 0
DILUPBiCG:  Solving for thetazz, Initial residual = 0, Final residual = 0, No Iterations 0
Coupled system: p, U
Petsc:preonly:lu: Solving coupled for p, Initial residual = 0.000548564662756, Final residual = 3.518983622e-16, No Iterations 1
Petsc:preonly:lu: Solving coupled for Ux, Initial residual = 0.00176454179825, Final residual = 1.13370191859e-14, No Iterations 1
time step continuity errors : sum local = 0.000142279451214, global = 1.72786400817e-16, cumulative = 4.57631327573e-15
ExecutionTime = 1.56 s  ClockTime = 9 s

Courant Number mean: 0.547581934696 max: 17.5829991812
Time = 0.94

Inner iteration:  0

DILUPBiCG:  Solving for thetaxx, Initial residual = 0.00827013957185, Final residual = 9.56426258355e-11, No Iterations 17
DILUPBiCG:  Solving for thetayy, Initial residual = 0, Final residual = 0, No Iterations 0
DILUPBiCG:  Solving for thetayz, Initial residual = 0, Final residual = 0, No Iterations 0
DILUPBiCG:  Solving for thetazz, Initial residual = 0, Final residual = 0, No Iterations 0
Coupled system: p, U
Petsc:preonly:lu: Solving coupled for p, Initial residual = 0.00053224827493, Final residual = 3.55440905972e-16, No Iterations 1
Petsc:preonly:lu: Solving coupled for Ux, Initial residual = 0.00173049875255, Final residual = 1.15385840902e-14, No Iterations 1
time step continuity errors : sum local = 0.000140604218017, global = 1.79989886586e-16, cumulative = 4.75630316232e-15
ExecutionTime = 1.59 s  ClockTime = 9 s

Courant Number mean: 0.547880973682 max: 17.6617052238
Time = 0.96

Inner iteration:  0

DILUPBiCG:  Solving for thetaxx, Initial residual = 0.00799728257663, Final residual = 1.95703636485e-11, No Iterations 18
DILUPBiCG:  Solving for thetayy, Initial residual = 0, Final residual = 0, No Iterations 0
DILUPBiCG:  Solving for thetayz, Initial residual = 0, Final residual = 0, No Iterations 0
DILUPBiCG:  Solving for thetazz, Initial residual = 0, Final residual = 0, No Iterations 0
Coupled system: p, U
Petsc:preonly:lu: Solving coupled for p, Initial residual = 0.000516707847011, Final residual = 3.51597139483e-16, No Iterations 1
Petsc:preonly:lu: Solving coupled for Ux, Initial residual = 0.00170032395202, Final residual = 1.18979536569e-14, No Iterations 1
time step continuity errors : sum local = 0.000138954386894, global = 1.68236045936e-16, cumulative = 4.92453920825e-15
ExecutionTime = 1.61 s  ClockTime = 9 s

Courant Number mean: 0.548177616685 max: 17.7363543847
Time = 0.98

Inner iteration:  0

DILUPBiCG:  Solving for thetaxx, Initial residual = 0.00786181385696, Final residual = 7.13947306852e-12, No Iterations 18
DILUPBiCG:  Solving for thetayy, Initial residual = 0, Final residual = 0, No Iterations 0
DILUPBiCG:  Solving for thetayz, Initial residual = 0, Final residual = 0, No Iterations 0
DILUPBiCG:  Solving for thetazz, Initial residual = 0, Final residual = 0, No Iterations 0
Coupled system: p, U
Petsc:preonly:lu: Solving coupled for p, Initial residual = 0.000501876150949, Final residual = 3.65317456954e-16, No Iterations 1
Petsc:preonly:lu: Solving coupled for Ux, Initial residual = 0.00166895516768, Final residual = 1.21279456509e-14, No Iterations 1
time step continuity errors : sum local = 0.000137352496909, global = 1.70925301433e-16, cumulative = 5.09546450968e-15
ExecutionTime = 1.64 s  ClockTime = 9 s

Courant Number mean: 0.548472306619 max: 17.8130953646
Time = 1

Inner iteration:  0

DILUPBiCG:  Solving for thetaxx, Initial residual = 0.00762814553906, Final residual = 8.85767625106e-12, No Iterations 18
DILUPBiCG:  Solving for thetayy, Initial residual = 0, Final residual = 0, No Iterations 0
DILUPBiCG:  Solving for thetayz, Initial residual = 0, Final residual = 0, No Iterations 0
DILUPBiCG:  Solving for thetazz, Initial residual = 0, Final residual = 0, No Iterations 0
Coupled system: p, U
Petsc:preonly:lu: Solving coupled for p, Initial residual = 0.000487718796639, Final residual = 3.54531341005e-16, No Iterations 1
Petsc:preonly:lu: Solving coupled for Ux, Initial residual = 0.00164193382361, Final residual = 1.20066863959e-14, No Iterations 1
time step continuity errors : sum local = 0.000135771162757, global = 1.71065022196e-16, cumulative = 5.26652953188e-15
ExecutionTime = 1.67 s  ClockTime = 9 s

Courant Number mean: 0.5487649357 max: 17.8854517943
Time = 1.02

Inner iteration:  0

DILUPBiCG:  Solving for thetaxx, Initial residual = 0.00751069293399, Final residual = 2.32258448873e-11, No Iterations 17
DILUPBiCG:  Solving for thetayy, Initial residual = 0, Final residual = 0, No Iterations 0
DILUPBiCG:  Solving for thetayz, Initial residual = 0, Final residual = 0, No Iterations 0
DILUPBiCG:  Solving for thetazz, Initial residual = 0, Final residual = 0, No Iterations 0
Coupled system: p, U
Petsc:preonly:lu: Solving coupled for p, Initial residual = 0.000474190100014, Final residual = 3.52644200823e-16, No Iterations 1
Petsc:preonly:lu: Solving coupled for Ux, Initial residual = 0.00161216233317, Final residual = 1.2545124323e-14, No Iterations 1
time step continuity errors : sum local = 0.000134223568044, global = 1.84205025068e-16, cumulative = 5.45073455695e-15
ExecutionTime = 1.7 s  ClockTime = 10 s

Courant Number mean: 0.549055460508 max: 17.9603855409
Time = 1.04

Inner iteration:  0

DILUPBiCG:  Solving for thetaxx, Initial residual = 0.00728076035006, Final residual = 2.23221659478e-11, No Iterations 17
DILUPBiCG:  Solving for thetayy, Initial residual = 0, Final residual = 0, No Iterations 0
DILUPBiCG:  Solving for thetayz, Initial residual = 0, Final residual = 0, No Iterations 0
DILUPBiCG:  Solving for thetazz, Initial residual = 0, Final residual = 0, No Iterations 0
Coupled system: p, U
Petsc:preonly:lu: Solving coupled for p, Initial residual = 0.00046125244883, Final residual = 3.57012403369e-16, No Iterations 1
Petsc:preonly:lu: Solving coupled for Ux, Initial residual = 0.00158715039217, Final residual = 1.23886577987e-14, No Iterations 1
time step continuity errors : sum local = 0.000132700633075, global = 1.76093432247e-16, cumulative = 5.6268279892e-15
ExecutionTime = 1.72 s  ClockTime = 10 s

Courant Number mean: 0.549344597715 max: 18.0306636225
Time = 1.06

Inner iteration:  0

DILUPBiCG:  Solving for thetaxx, Initial residual = 0.00718308898157, Final residual = 5.35437784409e-11, No Iterations 17
DILUPBiCG:  Solving for thetayy, Initial residual = 0, Final residual = 0, No Iterations 0
DILUPBiCG:  Solving for thetayz, Initial residual = 0, Final residual = 0, No Iterations 0
DILUPBiCG:  Solving for thetazz, Initial residual = 0, Final residual = 0, No Iterations 0
Coupled system: p, U
Petsc:preonly:lu: Solving coupled for p, Initial residual = 0.00044886433232, Final residual = 3.55893794263e-16, No Iterations 1
Petsc:preonly:lu: Solving coupled for Ux, Initial residual = 0.00155858281221, Final residual = 1.2226241711e-14, No Iterations 1
time step continuity errors : sum local = 0.000131214054984, global = 2.02866432861e-16, cumulative = 5.82969442206e-15
ExecutionTime = 1.75 s  ClockTime = 10 s

Courant Number mean: 0.549631296278 max: 18.1037281386
Time = 1.08

Inner iteration:  0

DILUPBiCG:  Solving for thetaxx, Initial residual = 0.0069961707662, Final residual = 3.84944686489e-11, No Iterations 17
DILUPBiCG:  Solving for thetayy, Initial residual = 0, Final residual = 0, No Iterations 0
DILUPBiCG:  Solving for thetayz, Initial residual = 0, Final residual = 0, No Iterations 0
DILUPBiCG:  Solving for thetazz, Initial residual = 0, Final residual = 0, No Iterations 0
Coupled system: p, U
Petsc:preonly:lu: Solving coupled for p, Initial residual = 0.000437006991257, Final residual = 3.58136982104e-16, No Iterations 1
Petsc:preonly:lu: Solving coupled for Ux, Initial residual = 0.00153529225894, Final residual = 1.2781993237e-14, No Iterations 1
time step continuity errors : sum local = 0.000129743917468, global = 1.96997042134e-16, cumulative = 6.02669146419e-15
ExecutionTime = 1.78 s  ClockTime = 10 s

Courant Number mean: 0.549915566434 max: 18.1720864786
Time = 1.1

Inner iteration:  0

DILUPBiCG:  Solving for thetaxx, Initial residual = 0.00688800387373, Final residual = 4.30014353837e-12, No Iterations 18
DILUPBiCG:  Solving for thetayy, Initial residual = 0, Final residual = 0, No Iterations 0
DILUPBiCG:  Solving for thetayz, Initial residual = 0, Final residual = 0, No Iterations 0
DILUPBiCG:  Solving for thetazz, Initial residual = 0, Final residual = 0, No Iterations 0
Coupled system: p, U
Petsc:preonly:lu: Solving coupled for p, Initial residual = 0.000425627270341, Final residual = 3.50301410015e-16, No Iterations 1
Petsc:preonly:lu: Solving coupled for Ux, Initial residual = 0.00150863925295, Final residual = 1.25974477895e-14, No Iterations 1
time step continuity errors : sum local = 0.000128306049675, global = 2.01948147234e-16, cumulative = 6.22863961142e-15
ExecutionTime = 1.81 s  ClockTime = 10 s

Courant Number mean: 0.550197762266 max: 18.2435083801
Time = 1.12

Inner iteration:  0

DILUPBiCG:  Solving for thetaxx, Initial residual = 0.006727135464, Final residual = 3.57365778967e-11, No Iterations 17
DILUPBiCG:  Solving for thetayy, Initial residual = 0, Final residual = 0, No Iterations 0
DILUPBiCG:  Solving for thetayz, Initial residual = 0, Final residual = 0, No Iterations 0
DILUPBiCG:  Solving for thetazz, Initial residual = 0, Final residual = 0, No Iterations 0
Coupled system: p, U
Petsc:preonly:lu: Solving coupled for p, Initial residual = 0.000414712190804, Final residual = 3.68026823063e-16, No Iterations 1
Petsc:preonly:lu: Solving coupled for Ux, Initial residual = 0.0014872853175, Final residual = 1.26417227744e-14, No Iterations 1
time step continuity errors : sum local = 0.000126884580975, global = 1.94174712788e-16, cumulative = 6.42281432421e-15
ExecutionTime = 1.83 s  ClockTime = 10 s

Courant Number mean: 0.550477568071 max: 18.3098929073
Time = 1.14

Inner iteration:  0

DILUPBiCG:  Solving for thetaxx, Initial residual = 0.0066481473799, Final residual = 3.67748712772e-12, No Iterations 18
DILUPBiCG:  Solving for thetayy, Initial residual = 0, Final residual = 0, No Iterations 0
DILUPBiCG:  Solving for thetayz, Initial residual = 0, Final residual = 0, No Iterations 0
DILUPBiCG:  Solving for thetazz, Initial residual = 0, Final residual = 0, No Iterations 0
Coupled system: p, U
Petsc:preonly:lu: Solving coupled for p, Initial residual = 0.000404227429577, Final residual = 3.62858454483e-16, No Iterations 1
Petsc:preonly:lu: Solving coupled for Ux, Initial residual = 0.00146196839513, Final residual = 1.28294004286e-14, No Iterations 1
time step continuity errors : sum local = 0.00012549484154, global = 1.99351021943e-16, cumulative = 6.62216534616e-15
ExecutionTime = 1.86 s  ClockTime = 10 s

Courant Number mean: 0.550755319403 max: 18.3798596265
Time = 1.16

Inner iteration:  0

DILUPBiCG:  Solving for thetaxx, Initial residual = 0.00648100619379, Final residual = 2.8961616903e-11, No Iterations 17
DILUPBiCG:  Solving for thetayy, Initial residual = 0, Final residual = 0, No Iterations 0
DILUPBiCG:  Solving for thetayz, Initial residual = 0, Final residual = 0, No Iterations 0
DILUPBiCG:  Solving for thetazz, Initial residual = 0, Final residual = 0, No Iterations 0
Coupled system: p, U
Petsc:preonly:lu: Solving coupled for p, Initial residual = 0.000394154104029, Final residual = 3.70872469606e-16, No Iterations 1
Petsc:preonly:lu: Solving coupled for Ux, Initial residual = 0.00144283668144, Final residual = 1.30003654717e-14, No Iterations 1
time step continuity errors : sum local = 0.000124117928519, global = 2.05187054008e-16, cumulative = 6.82735240016e-15
ExecutionTime = 1.89 s  ClockTime = 10 s

Courant Number mean: 0.551037535163 max: 18.4444401821
Time = 1.18

Inner iteration:  0

DILUPBiCG:  Solving for thetaxx, Initial residual = 0.00642092325395, Final residual = 9.88276978547e-11, No Iterations 16
DILUPBiCG:  Solving for thetayy, Initial residual = 0, Final residual = 0, No Iterations 0
DILUPBiCG:  Solving for thetayz, Initial residual = 0, Final residual = 0, No Iterations 0
DILUPBiCG:  Solving for thetazz, Initial residual = 0, Final residual = 0, No Iterations 0
Coupled system: p, U
Petsc:preonly:lu: Solving coupled for p, Initial residual = 0.000384459527521, Final residual = 3.61569388059e-16, No Iterations 1
Petsc:preonly:lu: Solving coupled for Ux, Initial residual = 0.00141897168362, Final residual = 1.31096430642e-14, No Iterations 1
time step continuity errors : sum local = 0.000122771191519, global = 1.85551356829e-16, cumulative = 7.01290375699e-15
ExecutionTime = 1.91 s  ClockTime = 10 s

Courant Number mean: 0.55132227704 max: 18.5128958279
Time = 1.2

Inner iteration:  0

DILUPBiCG:  Solving for thetaxx, Initial residual = 0.00626830529472, Final residual = 1.88020878201e-11, No Iterations 17
DILUPBiCG:  Solving for thetayy, Initial residual = 0, Final residual = 0, No Iterations 0
DILUPBiCG:  Solving for thetayz, Initial residual = 0, Final residual = 0, No Iterations 0
DILUPBiCG:  Solving for thetazz, Initial residual = 0, Final residual = 0, No Iterations 0
Coupled system: p, U
Petsc:preonly:lu: Solving coupled for p, Initial residual = 0.000375133485741, Final residual = 3.65778971423e-16, No Iterations 1
Petsc:preonly:lu: Solving coupled for Ux, Initial residual = 0.0014015245714, Final residual = 1.297914436e-14, No Iterations 1
time step continuity errors : sum local = 0.000121440752777, global = 2.05392783371e-16, cumulative = 7.21829654036e-15
ExecutionTime = 1.94 s  ClockTime = 10 s

Courant Number mean: 0.55160494132 max: 18.5757557031
Time = 1.22

Inner iteration:  0

DILUPBiCG:  Solving for thetaxx, Initial residual = 0.00621637367757, Final residual = 4.24722362467e-11, No Iterations 17
DILUPBiCG:  Solving for thetayy, Initial residual = 0, Final residual = 0, No Iterations 0
DILUPBiCG:  Solving for thetayz, Initial residual = 0, Final residual = 0, No Iterations 0
DILUPBiCG:  Solving for thetazz, Initial residual = 0, Final residual = 0, No Iterations 0
Coupled system: p, U
Petsc:preonly:lu: Solving coupled for p, Initial residual = 0.000366146672517, Final residual = 3.6647548275e-16, No Iterations 1
Petsc:preonly:lu: Solving coupled for Ux, Initial residual = 0.0013785296758, Final residual = 1.33052512544e-14, No Iterations 1
time step continuity errors : sum local = 0.000120138823667, global = 2.0367152333e-16, cumulative = 7.42196806369e-15
ExecutionTime = 1.97 s  ClockTime = 10 s

Courant Number mean: 0.55188580247 max: 18.6428467608
Time = 1.24

Inner iteration:  0

DILUPBiCG:  Solving for thetaxx, Initial residual = 0.00606429364045, Final residual = 1.75235624873e-11, No Iterations 17
DILUPBiCG:  Solving for thetayy, Initial residual = 0, Final residual = 0, No Iterations 0
DILUPBiCG:  Solving for thetayz, Initial residual = 0, Final residual = 0, No Iterations 0
DILUPBiCG:  Solving for thetazz, Initial residual = 0, Final residual = 0, No Iterations 0
Coupled system: p, U
Petsc:preonly:lu: Solving coupled for p, Initial residual = 0.000357490583104, Final residual = 3.52043435929e-16, No Iterations 1
Petsc:preonly:lu: Solving coupled for Ux, Initial residual = 0.00136208648331, Final residual = 1.3852223248e-14, No Iterations 1
time step continuity errors : sum local = 0.000118847795552, global = 2.25124726584e-16, cumulative = 7.64709279028e-15
ExecutionTime = 1.99 s  ClockTime = 10 s

Courant Number mean: 0.552165966441 max: 18.7040455155
Time = 1.26

Inner iteration:  0

DILUPBiCG:  Solving for thetaxx, Initial residual = 0.00602358672162, Final residual = 8.87931726274e-11, No Iterations 17
DILUPBiCG:  Solving for thetayy, Initial residual = 0, Final residual = 0, No Iterations 0
DILUPBiCG:  Solving for thetayz, Initial residual = 0, Final residual = 0, No Iterations 0
DILUPBiCG:  Solving for thetazz, Initial residual = 0, Final residual = 0, No Iterations 0
Coupled system: p, U
Petsc:preonly:lu: Solving coupled for p, Initial residual = 0.000349138659234, Final residual = 3.64634969129e-16, No Iterations 1
Petsc:preonly:lu: Solving coupled for Ux, Initial residual = 0.00133991510818, Final residual = 1.36622519606e-14, No Iterations 1
time step continuity errors : sum local = 0.000117585818207, global = 2.1599560451e-16, cumulative = 7.86308839479e-15
ExecutionTime = 2.02 s  ClockTime = 10 s

Courant Number mean: 0.552448809814 max: 18.769832226
Time = 1.28

Inner iteration:  0

DILUPBiCG:  Solving for thetaxx, Initial residual = 0.00587819543337, Final residual = 9.95424910619e-11, No Iterations 16
DILUPBiCG:  Solving for thetayy, Initial residual = 0, Final residual = 0, No Iterations 0
DILUPBiCG:  Solving for thetayz, Initial residual = 0, Final residual = 0, No Iterations 0
DILUPBiCG:  Solving for thetazz, Initial residual = 0, Final residual = 0, No Iterations 0
Coupled system: p, U
Petsc:preonly:lu: Solving coupled for p, Initial residual = 0.000341085062039, Final residual = 3.85177868483e-16, No Iterations 1
Petsc:preonly:lu: Solving coupled for Ux, Initial residual = 0.00132462716613, Final residual = 1.36873370701e-14, No Iterations 1
time step continuity errors : sum local = 0.000116335486986, global = 2.41636883355e-16, cumulative = 8.10472527814e-15
ExecutionTime = 2.05 s  ClockTime = 10 s

Courant Number mean: 0.552730235608 max: 18.8293880726
Time = 1.3

Inner iteration:  0

DILUPBiCG:  Solving for thetaxx, Initial residual = 0.00584391450075, Final residual = 2.8702074931e-11, No Iterations 17
DILUPBiCG:  Solving for thetayy, Initial residual = 0, Final residual = 0, No Iterations 0
DILUPBiCG:  Solving for thetayz, Initial residual = 0, Final residual = 0, No Iterations 0
DILUPBiCG:  Solving for thetazz, Initial residual = 0, Final residual = 0, No Iterations 0
Coupled system: p, U
Petsc:preonly:lu: Solving coupled for p, Initial residual = 0.000333307734404, Final residual = 3.86128031301e-16, No Iterations 1
Petsc:preonly:lu: Solving coupled for Ux, Initial residual = 0.00130351662366, Final residual = 1.35046940613e-14, No Iterations 1
time step continuity errors : sum local = 0.000115116151816, global = 2.19249395829e-16, cumulative = 8.32397467397e-15
ExecutionTime = 2.07 s  ClockTime = 10 s

Courant Number mean: 0.553009326861 max: 18.8938941675
Time = 1.32

Inner iteration:  0

DILUPBiCG:  Solving for thetaxx, Initial residual = 0.00570598423786, Final residual = 1.86520171273e-11, No Iterations 17
DILUPBiCG:  Solving for thetayy, Initial residual = 0, Final residual = 0, No Iterations 0
DILUPBiCG:  Solving for thetayz, Initial residual = 0, Final residual = 0, No Iterations 0
DILUPBiCG:  Solving for thetazz, Initial residual = 0, Final residual = 0, No Iterations 0
Coupled system: p, U
Petsc:preonly:lu: Solving coupled for p, Initial residual = 0.000325804521743, Final residual = 3.75754639524e-16, No Iterations 1
Petsc:preonly:lu: Solving coupled for Ux, Initial residual = 0.00128925795503, Final residual = 1.37482752903e-14, No Iterations 1
time step continuity errors : sum local = 0.000113908801487, global = 2.14352472126e-16, cumulative = 8.5383271461e-15
ExecutionTime = 2.1 s  ClockTime = 10 s

Courant Number mean: 0.553286276403 max: 18.9519562768
Time = 1.34

Inner iteration:  0

DILUPBiCG:  Solving for thetaxx, Initial residual = 0.00567784390173, Final residual = 5.74754071794e-12, No Iterations 18
DILUPBiCG:  Solving for thetayy, Initial residual = 0, Final residual = 0, No Iterations 0
DILUPBiCG:  Solving for thetayz, Initial residual = 0, Final residual = 0, No Iterations 0
DILUPBiCG:  Solving for thetazz, Initial residual = 0, Final residual = 0, No Iterations 0
Coupled system: p, U
Petsc:preonly:lu: Solving coupled for p, Initial residual = 0.000318545774865, Final residual = 3.58314431571e-16, No Iterations 1
Petsc:preonly:lu: Solving coupled for Ux, Initial residual = 0.00126904535614, Final residual = 1.37183092307e-14, No Iterations 1
time step continuity errors : sum local = 0.000112730559016, global = 2.1060550669e-16, cumulative = 8.74893265279e-15
ExecutionTime = 2.13 s  ClockTime = 10 s

Courant Number mean: 0.553561309559 max: 19.0153020546
Time = 1.36

Inner iteration:  0

DILUPBiCG:  Solving for thetaxx, Initial residual = 0.00555512689089, Final residual = 2.87244080627e-11, No Iterations 17
DILUPBiCG:  Solving for thetayy, Initial residual = 0, Final residual = 0, No Iterations 0
DILUPBiCG:  Solving for thetayz, Initial residual = 0, Final residual = 0, No Iterations 0
DILUPBiCG:  Solving for thetazz, Initial residual = 0, Final residual = 0, No Iterations 0
Coupled system: p, U
Petsc:preonly:lu: Solving coupled for p, Initial residual = 0.000311532663454, Final residual = 3.54612838389e-16, No Iterations 1
Petsc:preonly:lu: Solving coupled for Ux, Initial residual = 0.00125556607381, Final residual = 1.41444364033e-14, No Iterations 1
time step continuity errors : sum local = 0.000111559846708, global = 1.95665416129e-16, cumulative = 8.94459806892e-15
ExecutionTime = 2.16 s  ClockTime = 10 s

Courant Number mean: 0.553834096303 max: 19.0718032954
Time = 1.38

Inner iteration:  0

DILUPBiCG:  Solving for thetaxx, Initial residual = 0.00553085629931, Final residual = 5.86823294502e-11, No Iterations 17
DILUPBiCG:  Solving for thetayy, Initial residual = 0, Final residual = 0, No Iterations 0
DILUPBiCG:  Solving for thetayz, Initial residual = 0, Final residual = 0, No Iterations 0
DILUPBiCG:  Solving for thetazz, Initial residual = 0, Final residual = 0, No Iterations 0
Coupled system: p, U
Petsc:preonly:lu: Solving coupled for p, Initial residual = 0.000304742029448, Final residual = 3.80139232955e-16, No Iterations 1
Petsc:preonly:lu: Solving coupled for Ux, Initial residual = 0.00123644412492, Final residual = 1.4157395986e-14, No Iterations 1
time step continuity errors : sum local = 0.000110417396873, global = 2.42135118723e-16, cumulative = 9.18673318764e-15
ExecutionTime = 2.18 s  ClockTime = 10 s

Courant Number mean: 0.554104655725 max: 19.1339824532
Time = 1.4

Inner iteration:  0

DILUPBiCG:  Solving for thetaxx, Initial residual = 0.00540823229315, Final residual = 2.24558865263e-11, No Iterations 17
DILUPBiCG:  Solving for thetayy, Initial residual = 0, Final residual = 0, No Iterations 0
DILUPBiCG:  Solving for thetayz, Initial residual = 0, Final residual = 0, No Iterations 0
DILUPBiCG:  Solving for thetazz, Initial residual = 0, Final residual = 0, No Iterations 0
Coupled system: p, U
Petsc:preonly:lu: Solving coupled for p, Initial residual = 0.00029817535235, Final residual = 3.51314292887e-16, No Iterations 1
Petsc:preonly:lu: Solving coupled for Ux, Initial residual = 0.00122348454527, Final residual = 1.36873056411e-14, No Iterations 1
time step continuity errors : sum local = 0.000109280335123, global = 2.3302988178e-16, cumulative = 9.41976306942e-15
ExecutionTime = 2.21 s  ClockTime = 10 s

Courant Number mean: 0.554372858029 max: 19.1890971515
Time = 1.42

Inner iteration:  0

DILUPBiCG:  Solving for thetaxx, Initial residual = 0.00537956186937, Final residual = 7.82792859302e-12, No Iterations 18
DILUPBiCG:  Solving for thetayy, Initial residual = 0, Final residual = 0, No Iterations 0
DILUPBiCG:  Solving for thetayz, Initial residual = 0, Final residual = 0, No Iterations 0
DILUPBiCG:  Solving for thetazz, Initial residual = 0, Final residual = 0, No Iterations 0
Coupled system: p, U
Petsc:preonly:lu: Solving coupled for p, Initial residual = 0.000291810227127, Final residual = 3.47757595167e-16, No Iterations 1
Petsc:preonly:lu: Solving coupled for Ux, Initial residual = 0.00120591714561, Final residual = 1.40673679125e-14, No Iterations 1
time step continuity errors : sum local = 0.000108170217516, global = 2.2329969068e-16, cumulative = 9.6430627601e-15
ExecutionTime = 2.24 s  ClockTime = 10 s

Courant Number mean: 0.554638908456 max: 19.2502206971
Time = 1.44

Inner iteration:  0

DILUPBiCG:  Solving for thetaxx, Initial residual = 0.00526385004537, Final residual = 1.99535642104e-11, No Iterations 17
DILUPBiCG:  Solving for thetayy, Initial residual = 0, Final residual = 0, No Iterations 0
DILUPBiCG:  Solving for thetayz, Initial residual = 0, Final residual = 0, No Iterations 0
DILUPBiCG:  Solving for thetazz, Initial residual = 0, Final residual = 0, No Iterations 0
Coupled system: p, U
Petsc:preonly:lu: Solving coupled for p, Initial residual = 0.00028564928555, Final residual = 3.57287432534e-16, No Iterations 1
Petsc:preonly:lu: Solving coupled for Ux, Initial residual = 0.00119416298333, Final residual = 1.3722609614e-14, No Iterations 1
time step continuity errors : sum local = 0.000107067344979, global = 2.40643355976e-16, cumulative = 9.88370611607e-15
ExecutionTime = 2.26 s  ClockTime = 10 s

Courant Number mean: 0.554903210095 max: 19.3039398903
Time = 1.46

Inner iteration:  0

DILUPBiCG:  Solving for thetaxx, Initial residual = 0.00524927210674, Final residual = 4.21791368736e-11, No Iterations 17
DILUPBiCG:  Solving for thetayy, Initial residual = 0, Final residual = 0, No Iterations 0
DILUPBiCG:  Solving for thetayz, Initial residual = 0, Final residual = 0, No Iterations 0
DILUPBiCG:  Solving for thetazz, Initial residual = 0, Final residual = 0, No Iterations 0
Coupled system: p, U
Petsc:preonly:lu: Solving coupled for p, Initial residual = 0.00027967384678, Final residual = 3.53504068194e-16, No Iterations 1
Petsc:preonly:lu: Solving coupled for Ux, Initial residual = 0.00117672119321, Final residual = 1.41405812617e-14, No Iterations 1
time step continuity errors : sum local = 0.000105989112393, global = 2.30590480267e-16, cumulative = 1.01142965963e-14
ExecutionTime = 2.29 s  ClockTime = 10 s

Courant Number mean: 0.555165559157 max: 19.3640424572
Time = 1.48

Inner iteration:  0

DILUPBiCG:  Solving for thetaxx, Initial residual = 0.00515383712513, Final residual = 1.74296479895e-11, No Iterations 17
DILUPBiCG:  Solving for thetayy, Initial residual = 0, Final residual = 0, No Iterations 0
DILUPBiCG:  Solving for thetayz, Initial residual = 0, Final residual = 0, No Iterations 0
DILUPBiCG:  Solving for thetazz, Initial residual = 0, Final residual = 0, No Iterations 0
Coupled system: p, U
Petsc:preonly:lu: Solving coupled for p, Initial residual = 0.000273883492999, Final residual = 3.68212819514e-16, No Iterations 1
Petsc:preonly:lu: Solving coupled for Ux, Initial residual = 0.00116497495732, Final residual = 1.44587204847e-14, No Iterations 1
time step continuity errors : sum local = 0.000104914299562, global = 2.24852577268e-16, cumulative = 1.03391491736e-14
ExecutionTime = 2.32 s  ClockTime = 10 s

Courant Number mean: 0.55542612562 max: 19.4164676014
Time = 1.5

Inner iteration:  0

DILUPBiCG:  Solving for thetaxx, Initial residual = 0.00512892191352, Final residual = 2.56701403967e-11, No Iterations 17
DILUPBiCG:  Solving for thetayy, Initial residual = 0, Final residual = 0, No Iterations 0
DILUPBiCG:  Solving for thetayz, Initial residual = 0, Final residual = 0, No Iterations 0
DILUPBiCG:  Solving for thetazz, Initial residual = 0, Final residual = 0, No Iterations 0
Coupled system: p, U
Petsc:preonly:lu: Solving coupled for p, Initial residual = 0.000268257941271, Final residual = 3.68039302727e-16, No Iterations 1
Petsc:preonly:lu: Solving coupled for Ux, Initial residual = 0.00114866767218, Final residual = 1.42777553374e-14, No Iterations 1
time step continuity errors : sum local = 0.000103863897929, global = 2.4034943942e-16, cumulative = 1.0579498613e-14
ExecutionTime = 2.34 s  ClockTime = 10 s

Courant Number mean: 0.555684502291 max: 19.4755519306
Time = 1.52

Inner iteration:  0

DILUPBiCG:  Solving for thetaxx, Initial residual = 0.0050550557224, Final residual = 1.52229776992e-11, No Iterations 17
DILUPBiCG:  Solving for thetayy, Initial residual = 0, Final residual = 0, No Iterations 0
DILUPBiCG:  Solving for thetayz, Initial residual = 0, Final residual = 0, No Iterations 0
DILUPBiCG:  Solving for thetazz, Initial residual = 0, Final residual = 0, No Iterations 0
Coupled system: p, U
Petsc:preonly:lu: Solving coupled for p, Initial residual = 0.000262803748519, Final residual = 3.57881389836e-16, No Iterations 1
Petsc:preonly:lu: Solving coupled for Ux, Initial residual = 0.00113782340605, Final residual = 1.44322640362e-14, No Iterations 1
time step continuity errors : sum local = 0.000102816770083, global = 2.37803378436e-16, cumulative = 1.08173019915e-14
ExecutionTime = 2.37 s  ClockTime = 10 s

Courant Number mean: 0.555941377266 max: 19.5266541375
Time = 1.54

Inner iteration:  0

DILUPBiCG:  Solving for thetaxx, Initial residual = 0.00501467269145, Final residual = 2.49559313674e-11, No Iterations 17
DILUPBiCG:  Solving for thetayy, Initial residual = 0, Final residual = 0, No Iterations 0
DILUPBiCG:  Solving for thetayz, Initial residual = 0, Final residual = 0, No Iterations 0
DILUPBiCG:  Solving for thetazz, Initial residual = 0, Final residual = 0, No Iterations 0
Coupled system: p, U
Petsc:preonly:lu: Solving coupled for p, Initial residual = 0.000257506346129, Final residual = 3.59054597088e-16, No Iterations 1
Petsc:preonly:lu: Solving coupled for Ux, Initial residual = 0.00112153556092, Final residual = 1.49684790113e-14, No Iterations 1
time step continuity errors : sum local = 0.000101790853398, global = 2.22618964407e-16, cumulative = 1.10399209559e-14
ExecutionTime = 2.4 s  ClockTime = 10 s

Courant Number mean: 0.556196089425 max: 19.5848141317
Time = 1.56

Inner iteration:  0

DILUPBiCG:  Solving for thetaxx, Initial residual = 0.00494248094347, Final residual = 1.61403727033e-11, No Iterations 17
DILUPBiCG:  Solving for thetayy, Initial residual = 0, Final residual = 0, No Iterations 0
DILUPBiCG:  Solving for thetayz, Initial residual = 0, Final residual = 0, No Iterations 0
DILUPBiCG:  Solving for thetazz, Initial residual = 0, Final residual = 0, No Iterations 0
Coupled system: p, U
Petsc:preonly:lu: Solving coupled for p, Initial residual = 0.000252366250425, Final residual = 3.60667855664e-16, No Iterations 1
Petsc:preonly:lu: Solving coupled for Ux, Initial residual = 0.00111137274966, Final residual = 1.44949686045e-14, No Iterations 1
time step continuity errors : sum local = 0.000100768105526, global = 2.32695460512e-16, cumulative = 1.12726164164e-14
ExecutionTime = 2.43 s  ClockTime = 10 s

Courant Number mean: 0.556448733817 max: 19.6346625074
Time = 1.58

Inner iteration:  0

DILUPBiCG:  Solving for thetaxx, Initial residual = 0.00491159328299, Final residual = 2.88425293884e-11, No Iterations 17
DILUPBiCG:  Solving for thetayy, Initial residual = 0, Final residual = 0, No Iterations 0
DILUPBiCG:  Solving for thetayz, Initial residual = 0, Final residual = 0, No Iterations 0
DILUPBiCG:  Solving for thetazz, Initial residual = 0, Final residual = 0, No Iterations 0
Coupled system: p, U
Petsc:preonly:lu: Solving coupled for p, Initial residual = 0.000247366006779, Final residual = 3.79349789498e-16, No Iterations 1
Petsc:preonly:lu: Solving coupled for Ux, Initial residual = 0.0010961612452, Final residual = 1.43318094555e-14, No Iterations 1
time step continuity errors : sum local = 9.97700811469e-05, global = 2.52203907129e-16, cumulative = 1.15248203235e-14
ExecutionTime = 2.45 s  ClockTime = 10 s

Courant Number mean: 0.556699295396 max: 19.6918688359
Time = 1.6

Inner iteration:  0

DILUPBiCG:  Solving for thetaxx, Initial residual = 0.0048420572187, Final residual = 1.74350321352e-11, No Iterations 17
DILUPBiCG:  Solving for thetayy, Initial residual = 0, Final residual = 0, No Iterations 0
DILUPBiCG:  Solving for thetayz, Initial residual = 0, Final residual = 0, No Iterations 0
DILUPBiCG:  Solving for thetazz, Initial residual = 0, Final residual = 0, No Iterations 0
Coupled system: p, U
Petsc:preonly:lu: Solving coupled for p, Initial residual = 0.000242514213032, Final residual = 3.68323972562e-16, No Iterations 1
Petsc:preonly:lu: Solving coupled for Ux, Initial residual = 0.00108515973426, Final residual = 1.44362721668e-14, No Iterations 1
time step continuity errors : sum local = 9.87729288822e-05, global = 2.56746229825e-16, cumulative = 1.17815665533e-14
ExecutionTime = 2.48 s  ClockTime = 10 s

Courant Number mean: 0.556948316957 max: 19.7405921723
Time = 1.62

Inner iteration:  0

DILUPBiCG:  Solving for thetaxx, Initial residual = 0.00480959292867, Final residual = 2.78798635875e-11, No Iterations 17
DILUPBiCG:  Solving for thetayy, Initial residual = 0, Final residual = 0, No Iterations 0
DILUPBiCG:  Solving for thetayz, Initial residual = 0, Final residual = 0, No Iterations 0
DILUPBiCG:  Solving for thetazz, Initial residual = 0, Final residual = 0, No Iterations 0
Coupled system: p, U
Petsc:preonly:lu: Solving coupled for p, Initial residual = 0.000237789374284, Final residual = 3.64182460483e-16, No Iterations 1
Petsc:preonly:lu: Solving coupled for Ux, Initial residual = 0.00107088852501, Final residual = 1.46031628044e-14, No Iterations 1
time step continuity errors : sum local = 9.77980320322e-05, global = 2.66342287669e-16, cumulative = 1.2047908841e-14
ExecutionTime = 2.51 s  ClockTime = 10 s

Courant Number mean: 0.557195530131 max: 19.7969303496
Time = 1.64

Inner iteration:  0

DILUPBiCG:  Solving for thetaxx, Initial residual = 0.00475113538307, Final residual = 1.87614884668e-11, No Iterations 17
DILUPBiCG:  Solving for thetayy, Initial residual = 0, Final residual = 0, No Iterations 0
DILUPBiCG:  Solving for thetayz, Initial residual = 0, Final residual = 0, No Iterations 0
DILUPBiCG:  Solving for thetazz, Initial residual = 0, Final residual = 0, No Iterations 0
Coupled system: p, U
Petsc:preonly:lu: Solving coupled for p, Initial residual = 0.000233198681948, Final residual = 3.57497919893e-16, No Iterations 1
Petsc:preonly:lu: Solving coupled for Ux, Initial residual = 0.00106087656337, Final residual = 1.48258337835e-14, No Iterations 1
time step continuity errors : sum local = 9.68257131626e-05, global = 2.36255580676e-16, cumulative = 1.22841644217e-14
ExecutionTime = 2.53 s  ClockTime = 10 s

Courant Number mean: 0.557440674793 max: 19.8444132973
Time = 1.66

Inner iteration:  0

DILUPBiCG:  Solving for thetaxx, Initial residual = 0.0047126803085, Final residual = 2.69667577493e-11, No Iterations 17
DILUPBiCG:  Solving for thetayy, Initial residual = 0, Final residual = 0, No Iterations 0
DILUPBiCG:  Solving for thetayz, Initial residual = 0, Final residual = 0, No Iterations 0
DILUPBiCG:  Solving for thetazz, Initial residual = 0, Final residual = 0, No Iterations 0
Coupled system: p, U
Petsc:preonly:lu: Solving coupled for p, Initial residual = 0.000228730145751, Final residual = 3.72925679115e-16, No Iterations 1
Petsc:preonly:lu: Solving coupled for Ux, Initial residual = 0.00104599030123, Final residual = 1.48433086178e-14, No Iterations 1
time step continuity errors : sum local = 9.58728711974e-05, global = 2.67160266127e-16, cumulative = 1.25513246878e-14
ExecutionTime = 2.56 s  ClockTime = 10 s

Courant Number mean: 0.557683771699 max: 19.8999551906
Time = 1.68

Inner iteration:  0

DILUPBiCG:  Solving for thetaxx, Initial residual = 0.00465180820855, Final residual = 1.89586706757e-11, No Iterations 17
DILUPBiCG:  Solving for thetayy, Initial residual = 0, Final residual = 0, No Iterations 0
[...]
Petsc:preonly:lu: Solving coupled for Ux, Initial residual = 3.00559384934e-05, Final residual = 1.87387651937e-14, No Iterations 1
time step continuity errors : sum local = 1.2204084405e-07, global = 3.7446363038e-16, cumulative = 2.54224030803e-13
ExecutionTime = 21.56 s  ClockTime = 30 s

Courant Number mean: 0.644601065959 max: 25.6958617714
Time = 14.6

Inner iteration:  0

DILUPBiCG:  Solving for thetaxx, Initial residual = 0.000968448022693, Final residual = 6.06739467982e-11, No Iterations 18
DILUPBiCG:  Solving for thetayy, Initial residual = 0, Final residual = 0, No Iterations 0
DILUPBiCG:  Solving for thetayz, Initial residual = 0, Final residual = 0, No Iterations 0
DILUPBiCG:  Solving for thetazz, Initial residual = 0, Final residual = 0, No Iterations 0
Coupled system: p, U
Petsc:preonly:lu: Solving coupled for p, Initial residual = 9.01040134309e-08, Final residual = 3.70403074123e-16, No Iterations 1
Petsc:preonly:lu: Solving coupled for Ux, Initial residual = 3.12494277651e-05, Final residual = 1.85346848982e-14, No Iterations 1
time step continuity errors : sum local = 1.23281339923e-07, global = 3.54087148469e-16, cumulative = 2.54578117951e-13
ExecutionTime = 21.58 s  ClockTime = 30 s

Courant Number mean: 0.644602039476 max: 25.7091813213
Time = 14.62

Inner iteration:  0

DILUPBiCG:  Solving for thetaxx, Initial residual = 0.000967269578533, Final residual = 6.39513468833e-11, No Iterations 18
DILUPBiCG:  Solving for thetayy, Initial residual = 0, Final residual = 0, No Iterations 0
DILUPBiCG:  Solving for thetayz, Initial residual = 0, Final residual = 0, No Iterations 0
DILUPBiCG:  Solving for thetazz, Initial residual = 0, Final residual = 0, No Iterations 0
Coupled system: p, U
Petsc:preonly:lu: Solving coupled for p, Initial residual = 9.39881636438e-08, Final residual = 3.75727288043e-16, No Iterations 1
Petsc:preonly:lu: Solving coupled for Ux, Initial residual = 3.16183500981e-05, Final residual = 1.8923133843e-14, No Iterations 1
time step continuity errors : sum local = 1.12944551045e-07, global = 3.75417545986e-16, cumulative = 2.54953535497e-13
ExecutionTime = 21.61 s  ClockTime = 30 s

Courant Number mean: 0.64460307402 max: 25.6953702757
Time = 14.64

Inner iteration:  0

DILUPBiCG:  Solving for thetaxx, Initial residual = 0.000944044019583, Final residual = 8.58899979648e-11, No Iterations 18
DILUPBiCG:  Solving for thetayy, Initial residual = 0, Final residual = 0, No Iterations 0
DILUPBiCG:  Solving for thetayz, Initial residual = 0, Final residual = 0, No Iterations 0
DILUPBiCG:  Solving for thetazz, Initial residual = 0, Final residual = 0, No Iterations 0
Coupled system: p, U
Petsc:preonly:lu: Solving coupled for p, Initial residual = 9.41268710616e-08, Final residual = 3.56313326903e-16, No Iterations 1
Petsc:preonly:lu: Solving coupled for Ux, Initial residual = 3.07457465495e-05, Final residual = 1.81139101223e-14, No Iterations 1
time step continuity errors : sum local = 1.19857616246e-07, global = 3.80426725987e-16, cumulative = 2.55333962223e-13
ExecutionTime = 21.64 s  ClockTime = 30 s

Courant Number mean: 0.644604174451 max: 25.7109180659
Time = 14.66

Inner iteration:  0

DILUPBiCG:  Solving for thetaxx, Initial residual = 0.000936501973352, Final residual = 6.73964124632e-11, No Iterations 18
DILUPBiCG:  Solving for thetayy, Initial residual = 0, Final residual = 0, No Iterations 0
DILUPBiCG:  Solving for thetayz, Initial residual = 0, Final residual = 0, No Iterations 0
DILUPBiCG:  Solving for thetazz, Initial residual = 0, Final residual = 0, No Iterations 0
Coupled system: p, U
Petsc:preonly:lu: Solving coupled for p, Initial residual = 8.99884238234e-08, Final residual = 3.39394687182e-16, No Iterations 1
Petsc:preonly:lu: Solving coupled for Ux, Initial residual = 3.06932191354e-05, Final residual = 1.84886927841e-14, No Iterations 1
time step continuity errors : sum local = 1.21410331079e-07, global = 3.78682184902e-16, cumulative = 2.55712644408e-13
ExecutionTime = 21.66 s  ClockTime = 30 s

Courant Number mean: 0.644604761549 max: 25.696021969
Time = 14.68

Inner iteration:  0

DILUPBiCG:  Solving for thetaxx, Initial residual = 0.000968659027311, Final residual = 5.72632391273e-11, No Iterations 18
DILUPBiCG:  Solving for thetayy, Initial residual = 0, Final residual = 0, No Iterations 0
DILUPBiCG:  Solving for thetayz, Initial residual = 0, Final residual = 0, No Iterations 0
DILUPBiCG:  Solving for thetazz, Initial residual = 0, Final residual = 0, No Iterations 0
Coupled system: p, U
Petsc:preonly:lu: Solving coupled for p, Initial residual = 8.83426658531e-08, Final residual = 3.57912701791e-16, No Iterations 1
Petsc:preonly:lu: Solving coupled for Ux, Initial residual = 3.12512049682e-05, Final residual = 1.90601730126e-14, No Iterations 1
time step continuity errors : sum local = 1.22710114597e-07, global = 4.20680538851e-16, cumulative = 2.56133324947e-13
ExecutionTime = 21.69 s  ClockTime = 30 s

Courant Number mean: 0.644605217447 max: 25.7093608535
Time = 14.7

Inner iteration:  0

DILUPBiCG:  Solving for thetaxx, Initial residual = 0.000969993729527, Final residual = 6.14196932725e-11, No Iterations 18
DILUPBiCG:  Solving for thetayy, Initial residual = 0, Final residual = 0, No Iterations 0
DILUPBiCG:  Solving for thetayz, Initial residual = 0, Final residual = 0, No Iterations 0
DILUPBiCG:  Solving for thetazz, Initial residual = 0, Final residual = 0, No Iterations 0
Coupled system: p, U
Petsc:preonly:lu: Solving coupled for p, Initial residual = 9.15259993247e-08, Final residual = 3.59253485785e-16, No Iterations 1
Petsc:preonly:lu: Solving coupled for Ux, Initial residual = 3.16171863905e-05, Final residual = 1.8704862425e-14, No Iterations 1
time step continuity errors : sum local = 1.09521514604e-07, global = 3.66901670308e-16, cumulative = 2.56500226618e-13
ExecutionTime = 21.72 s  ClockTime = 30 s

Courant Number mean: 0.644606032676 max: 25.6954983316
Time = 14.72

Inner iteration:  0

DILUPBiCG:  Solving for thetaxx, Initial residual = 0.000935571242628, Final residual = 7.31869554394e-11, No Iterations 18
DILUPBiCG:  Solving for thetayy, Initial residual = 0, Final residual = 0, No Iterations 0
DILUPBiCG:  Solving for thetayz, Initial residual = 0, Final residual = 0, No Iterations 0
DILUPBiCG:  Solving for thetazz, Initial residual = 0, Final residual = 0, No Iterations 0
Coupled system: p, U
Petsc:preonly:lu: Solving coupled for p, Initial residual = 8.99764143082e-08, Final residual = 3.63024696964e-16, No Iterations 1
Petsc:preonly:lu: Solving coupled for Ux, Initial residual = 3.06534537329e-05, Final residual = 1.85165310188e-14, No Iterations 1
time step continuity errors : sum local = 1.1650738328e-07, global = 4.32999168483e-16, cumulative = 2.56933225786e-13
ExecutionTime = 21.74 s  ClockTime = 30 s

Courant Number mean: 0.644607005959 max: 25.7110667164
Time = 14.74

Inner iteration:  0

DILUPBiCG:  Solving for thetaxx, Initial residual = 0.000958369775796, Final residual = 6.74113190275e-11, No Iterations 18
DILUPBiCG:  Solving for thetayy, Initial residual = 0, Final residual = 0, No Iterations 0
DILUPBiCG:  Solving for thetayz, Initial residual = 0, Final residual = 0, No Iterations 0
DILUPBiCG:  Solving for thetazz, Initial residual = 0, Final residual = 0, No Iterations 0
Coupled system: p, U
Petsc:preonly:lu: Solving coupled for p, Initial residual = 8.57113902221e-08, Final residual = 3.79439109459e-16, No Iterations 1
Petsc:preonly:lu: Solving coupled for Ux, Initial residual = 3.01815600467e-05, Final residual = 1.82724713127e-14, No Iterations 1
time step continuity errors : sum local = 1.18494422847e-07, global = 3.8140862157e-16, cumulative = 2.57314634408e-13
ExecutionTime = 21.77 s  ClockTime = 30 s

Courant Number mean: 0.644608266975 max: 25.6961084428
Time = 14.76

Inner iteration:  0

DILUPBiCG:  Solving for thetaxx, Initial residual = 0.000969867287582, Final residual = 6.07942685028e-11, No Iterations 18
DILUPBiCG:  Solving for thetayy, Initial residual = 0, Final residual = 0, No Iterations 0
DILUPBiCG:  Solving for thetayz, Initial residual = 0, Final residual = 0, No Iterations 0
DILUPBiCG:  Solving for thetazz, Initial residual = 0, Final residual = 0, No Iterations 0
Coupled system: p, U
Petsc:preonly:lu: Solving coupled for p, Initial residual = 8.55981095988e-08, Final residual = 3.73268022067e-16, No Iterations 1
Petsc:preonly:lu: Solving coupled for Ux, Initial residual = 3.20163925714e-05, Final residual = 1.85174873958e-14, No Iterations 1
time step continuity errors : sum local = 1.21147740823e-07, global = 4.15186101569e-16, cumulative = 2.57729820509e-13
ExecutionTime = 21.8 s  ClockTime = 30 s

Courant Number mean: 0.644608732389 max: 25.7095209809
Time = 14.78

Inner iteration:  0

DILUPBiCG:  Solving for thetaxx, Initial residual = 0.000966944959242, Final residual = 6.39459181567e-11, No Iterations 18
DILUPBiCG:  Solving for thetayy, Initial residual = 0, Final residual = 0, No Iterations 0
DILUPBiCG:  Solving for thetayz, Initial residual = 0, Final residual = 0, No Iterations 0
DILUPBiCG:  Solving for thetazz, Initial residual = 0, Final residual = 0, No Iterations 0
Coupled system: p, U
Petsc:preonly:lu: Solving coupled for p, Initial residual = 9.17654607211e-08, Final residual = 3.62386928405e-16, No Iterations 1
Petsc:preonly:lu: Solving coupled for Ux, Initial residual = 3.1554750953e-05, Final residual = 1.85236991736e-14, No Iterations 1
time step continuity errors : sum local = 1.11899959802e-07, global = 3.90473517133e-16, cumulative = 2.58120294026e-13
ExecutionTime = 21.82 s  ClockTime = 30 s

Courant Number mean: 0.644609070988 max: 25.6956793448
Time = 14.8

Inner iteration:  0

DILUPBiCG:  Solving for thetaxx, Initial residual = 0.000929027738774, Final residual = 8.60001416322e-11, No Iterations 18
DILUPBiCG:  Solving for thetayy, Initial residual = 0, Final residual = 0, No Iterations 0
DILUPBiCG:  Solving for thetayz, Initial residual = 0, Final residual = 0, No Iterations 0
DILUPBiCG:  Solving for thetazz, Initial residual = 0, Final residual = 0, No Iterations 0
Coupled system: p, U
Petsc:preonly:lu: Solving coupled for p, Initial residual = 8.86614604191e-08, Final residual = 3.69587878159e-16, No Iterations 1
Petsc:preonly:lu: Solving coupled for Ux, Initial residual = 3.06362406222e-05, Final residual = 1.88379078748e-14, No Iterations 1
time step continuity errors : sum local = 1.12914169596e-07, global = 4.24636293692e-16, cumulative = 2.5854493032e-13
ExecutionTime = 21.85 s  ClockTime = 30 s

Courant Number mean: 0.64460969287 max: 25.7111857728
Time = 14.82

Inner iteration:  0

DILUPBiCG:  Solving for thetaxx, Initial residual = 0.00093559217922, Final residual = 6.72733059973e-11, No Iterations 18
DILUPBiCG:  Solving for thetayy, Initial residual = 0, Final residual = 0, No Iterations 0
DILUPBiCG:  Solving for thetayz, Initial residual = 0, Final residual = 0, No Iterations 0
DILUPBiCG:  Solving for thetazz, Initial residual = 0, Final residual = 0, No Iterations 0
Coupled system: p, U
Petsc:preonly:lu: Solving coupled for p, Initial residual = 8.27288840229e-08, Final residual = 3.65913115637e-16, No Iterations 1
Petsc:preonly:lu: Solving coupled for Ux, Initial residual = 3.00642715446e-05, Final residual = 1.91005401677e-14, No Iterations 1
time step continuity errors : sum local = 1.15189192562e-07, global = 3.60335914368e-16, cumulative = 2.58905266234e-13
ExecutionTime = 21.88 s  ClockTime = 30 s

Courant Number mean: 0.644610842155 max: 25.6962331601
Time = 14.84

Inner iteration:  0

DILUPBiCG:  Solving for thetaxx, Initial residual = 0.000984588962624, Final residual = 5.72856190872e-11, No Iterations 18
DILUPBiCG:  Solving for thetayy, Initial residual = 0, Final residual = 0, No Iterations 0
DILUPBiCG:  Solving for thetayz, Initial residual = 0, Final residual = 0, No Iterations 0
DILUPBiCG:  Solving for thetazz, Initial residual = 0, Final residual = 0, No Iterations 0
Coupled system: p, U
Petsc:preonly:lu: Solving coupled for p, Initial residual = 8.21856555867e-08, Final residual = 3.78419234485e-16, No Iterations 1
Petsc:preonly:lu: Solving coupled for Ux, Initial residual = 3.14204094262e-05, Final residual = 1.85385718434e-14, No Iterations 1
time step continuity errors : sum local = 1.21421566816e-07, global = 4.19765615518e-16, cumulative = 2.5932503185e-13
ExecutionTime = 21.9 s  ClockTime = 30 s

Courant Number mean: 0.644612079474 max: 25.709593161
Time = 14.86

Inner iteration:  0

DILUPBiCG:  Solving for thetaxx, Initial residual = 0.000970453909071, Final residual = 6.13338552082e-11, No Iterations 18
DILUPBiCG:  Solving for thetayy, Initial residual = 0, Final residual = 0, No Iterations 0
DILUPBiCG:  Solving for thetayz, Initial residual = 0, Final residual = 0, No Iterations 0
DILUPBiCG:  Solving for thetazz, Initial residual = 0, Final residual = 0, No Iterations 0
Coupled system: p, U
Petsc:preonly:lu: Solving coupled for p, Initial residual = 9.25004731073e-08, Final residual = 3.63383410171e-16, No Iterations 1
Petsc:preonly:lu: Solving coupled for Ux, Initial residual = 3.22194022947e-05, Final residual = 1.84685678972e-14, No Iterations 1
time step continuity errors : sum local = 1.10936914209e-07, global = 3.35241248045e-16, cumulative = 2.59660273098e-13
ExecutionTime = 21.93 s  ClockTime = 30 s

Courant Number mean: 0.644612349026 max: 25.6958215837
Time = 14.88

Inner iteration:  0

DILUPBiCG:  Solving for thetaxx, Initial residual = 0.000933767668071, Final residual = 7.28889905006e-11, No Iterations 18
DILUPBiCG:  Solving for thetayy, Initial residual = 0, Final residual = 0, No Iterations 0
DILUPBiCG:  Solving for thetayz, Initial residual = 0, Final residual = 0, No Iterations 0
DILUPBiCG:  Solving for thetazz, Initial residual = 0, Final residual = 0, No Iterations 0
Coupled system: p, U
Petsc:preonly:lu: Solving coupled for p, Initial residual = 8.90490436207e-08, Final residual = 3.84749317062e-16, No Iterations 1
Petsc:preonly:lu: Solving coupled for Ux, Initial residual = 3.05927657038e-05, Final residual = 1.86461301839e-14, No Iterations 1
time step continuity errors : sum local = 1.09396587211e-07, global = 3.97712861969e-16, cumulative = 2.6005798596e-13
ExecutionTime = 21.96 s  ClockTime = 30 s

Courant Number mean: 0.644612544532 max: 25.7113612752
Time = 14.9

Inner iteration:  0

DILUPBiCG:  Solving for thetaxx, Initial residual = 0.00094371173112, Final residual = 6.758755982e-11, No Iterations 18
DILUPBiCG:  Solving for thetayy, Initial residual = 0, Final residual = 0, No Iterations 0
DILUPBiCG:  Solving for thetayz, Initial residual = 0, Final residual = 0, No Iterations 0
DILUPBiCG:  Solving for thetazz, Initial residual = 0, Final residual = 0, No Iterations 0
Coupled system: p, U
Petsc:preonly:lu: Solving coupled for p, Initial residual = 8.16842460592e-08, Final residual = 3.58524183271e-16, No Iterations 1
Petsc:preonly:lu: Solving coupled for Ux, Initial residual = 2.99857710617e-05, Final residual = 1.88779050824e-14, No Iterations 1
time step continuity errors : sum local = 1.12091704817e-07, global = 3.72643406933e-16, cumulative = 2.60430629367e-13
ExecutionTime = 21.98 s  ClockTime = 30 s

Courant Number mean: 0.644613411376 max: 25.6963600877
Time = 14.92

Inner iteration:  0

DILUPBiCG:  Solving for thetaxx, Initial residual = 0.000968463548996, Final residual = 6.08919536298e-11, No Iterations 18
DILUPBiCG:  Solving for thetayy, Initial residual = 0, Final residual = 0, No Iterations 0
DILUPBiCG:  Solving for thetayz, Initial residual = 0, Final residual = 0, No Iterations 0
DILUPBiCG:  Solving for thetazz, Initial residual = 0, Final residual = 0, No Iterations 0
Coupled system: p, U
Petsc:preonly:lu: Solving coupled for p, Initial residual = 7.99805958853e-08, Final residual = 3.65240049501e-16, No Iterations 1
Petsc:preonly:lu: Solving coupled for Ux, Initial residual = 3.12956711268e-05, Final residual = 1.87858904571e-14, No Iterations 1
time step continuity errors : sum local = 1.17716767657e-07, global = 3.48998606737e-16, cumulative = 2.60779627974e-13
ExecutionTime = 22.01 s  ClockTime = 30 s

Courant Number mean: 0.644614431974 max: 25.7097137379
Time = 14.94

Inner iteration:  0

DILUPBiCG:  Solving for thetaxx, Initial residual = 0.000981102642368, Final residual = 6.36811599204e-11, No Iterations 18
DILUPBiCG:  Solving for thetayy, Initial residual = 0, Final residual = 0, No Iterations 0
DILUPBiCG:  Solving for thetayz, Initial residual = 0, Final residual = 0, No Iterations 0
DILUPBiCG:  Solving for thetazz, Initial residual = 0, Final residual = 0, No Iterations 0
Coupled system: p, U
Petsc:preonly:lu: Solving coupled for p, Initial residual = 8.84253570025e-08, Final residual = 3.58044475123e-16, No Iterations 1
Petsc:preonly:lu: Solving coupled for Ux, Initial residual = 3.16358191072e-05, Final residual = 1.846982866e-14, No Iterations 1
time step continuity errors : sum local = 1.07468710131e-07, global = 3.69310517686e-16, cumulative = 2.61148938491e-13
ExecutionTime = 22.04 s  ClockTime = 30 s

Courant Number mean: 0.644615520475 max: 25.6958933306
Time = 14.96

Inner iteration:  0

DILUPBiCG:  Solving for thetaxx, Initial residual = 0.000931177722017, Final residual = 8.61890681423e-11, No Iterations 18
DILUPBiCG:  Solving for thetayy, Initial residual = 0, Final residual = 0, No Iterations 0
DILUPBiCG:  Solving for thetayz, Initial residual = 0, Final residual = 0, No Iterations 0
DILUPBiCG:  Solving for thetazz, Initial residual = 0, Final residual = 0, No Iterations 0
Coupled system: p, U
Petsc:preonly:lu: Solving coupled for p, Initial residual = 8.8399580362e-08, Final residual = 3.64393020702e-16, No Iterations 1
Petsc:preonly:lu: Solving coupled for Ux, Initial residual = 3.12566930608e-05, Final residual = 1.8051052671e-14, No Iterations 1
time step continuity errors : sum local = 1.07993088663e-07, global = 3.70391585008e-16, cumulative = 2.61519330076e-13
ExecutionTime = 22.07 s  ClockTime = 30 s

Courant Number mean: 0.644615706949 max: 25.7114932299
Time = 14.98

Inner iteration:  0

DILUPBiCG:  Solving for thetaxx, Initial residual = 0.000935624312597, Final residual = 6.71994635046e-11, No Iterations 18
DILUPBiCG:  Solving for thetayy, Initial residual = 0, Final residual = 0, No Iterations 0
DILUPBiCG:  Solving for thetayz, Initial residual = 0, Final residual = 0, No Iterations 0
DILUPBiCG:  Solving for thetazz, Initial residual = 0, Final residual = 0, No Iterations 0
Coupled system: p, U
Petsc:preonly:lu: Solving coupled for p, Initial residual = 8.0142076777e-08, Final residual = 3.86267188954e-16, No Iterations 1
Petsc:preonly:lu: Solving coupled for Ux, Initial residual = 2.99557721167e-05, Final residual = 1.8831415052e-14, No Iterations 1
time step continuity errors : sum local = 1.14015689829e-07, global = 3.72365766772e-16, cumulative = 2.61891695843e-13
ExecutionTime = 22.09 s  ClockTime = 30 s

Courant Number mean: 0.644616048349 max: 25.6965116312
Time = 15

Inner iteration:  0

DILUPBiCG:  Solving for thetaxx, Initial residual = 0.000968187433218, Final residual = 5.74299668451e-11, No Iterations 18
DILUPBiCG:  Solving for thetayy, Initial residual = 0, Final residual = 0, No Iterations 0
DILUPBiCG:  Solving for thetayz, Initial residual = 0, Final residual = 0, No Iterations 0
DILUPBiCG:  Solving for thetazz, Initial residual = 0, Final residual = 0, No Iterations 0
Coupled system: p, U
Petsc:preonly:lu: Solving coupled for p, Initial residual = 8.02287869183e-08, Final residual = 3.71626678186e-16, No Iterations 1
Petsc:preonly:lu: Solving coupled for Ux, Initial residual = 3.11656033795e-05, Final residual = 1.84530306719e-14, No Iterations 1
time step continuity errors : sum local = 1.14851337551e-07, global = 4.23849667831e-16, cumulative = 2.62315545511e-13
ExecutionTime = 22.12 s  ClockTime = 30 s

End

