/*---------------------------------------------------------------------------*\
  =========                 |
  \\      /  F ield         | OpenFOAM: The Open Source CFD Toolbox
   \\    /   O peration     | Website:  https://openfoam.org
    \\  /    A nd           | Version:  9
     \\/     M anipulation  |
\*---------------------------------------------------------------------------*/
Build  : 9-c96968adf6d8
Exec   : rheoFoam
Date   : Aug 29 2022
Time   : 12:10:14
Host   : "clove-ZenBook-UX535LI-UX535LI"
PID    : 20829
I/O    : uncollated
Case   : /home/clove/rheoTool/of90/custom_models/cyl_test/Oldroyd-BLog
nProcs : 1
sigFpe : Enabling floating point exception trapping (FOAM_SIGFPE).
fileModificationChecking : Monitoring run-time modified files using timeStampMaster (fileModificationSkew 10)
allowSystemOperations : Allowing user-supplied system call operations

// * * * * * * * * * * * * * * * * * * * * * * * * * * * * * * * * * * * * * //
Create time

Create mesh for time = 0


SIMPLE: No convergence criteria found


SIMPLE: No convergence criteria found


SIMPLE: Operating solver in transient mode with 1 outer corrector
SIMPLE: Operating solver in PISO mode


Reading field p

Reading field U

Reading/calculating face flux field phi

Selecting constitutive equation Oldroyd-BLog
Selecting thermoFunction: Constant
Selecting thermoFunction: Constant
No MRF models present

No fvModels present
No fvConstraints present
Courant Number mean: 0.000126239281468 max: 0.00803183473348

Starting time loop

Using dynamicCode for coded outputTest at line 58 in "/home/clove/rheoTool/of90/custom_models/cyl_test/Oldroyd-BLog/system/controlDict/functions/outputTest"
Creating new library in "dynamicCode/outputTest/platforms/linux64GccDPInt32Opt/lib/liboutputTest_ba4dbdd3ab8bce4f927d847044fc82b1a9aedbbf.so"
"/opt/openfoam9/etc/codeTemplates/dynamicCode/codedFunctionObjectTemplate.C" "/home/clove/rheoTool/of90/custom_models/cyl_test/Oldroyd-BLog/dynamicCode/outputTest/codedFunctionObjectTemplate.C"
"/opt/openfoam9/etc/codeTemplates/dynamicCode/codedFunctionObjectTemplate.H" "/home/clove/rheoTool/of90/custom_models/cyl_test/Oldroyd-BLog/dynamicCode/outputTest/codedFunctionObjectTemplate.H"
Invoking "wmake -s libso /home/clove/rheoTool/of90/custom_models/cyl_test/Oldroyd-BLog/dynamicCode/outputTest"
wmake libso /home/clove/rheoTool/of90/custom_models/cyl_test/Oldroyd-BLog/dynamicCode/outputTest
    ln: ./lnInclude
    wmkdep: codedFunctionObjectTemplate.C
    Ctoo: codedFunctionObjectTemplate.C
    ld: /home/clove/rheoTool/of90/custom_models/cyl_test/Oldroyd-BLog/dynamicCode/outputTest/../platforms/linux64GccDPInt32Opt/lib/liboutputTest_ba4dbdd3ab8bce4f927d847044fc82b1a9aedbbf.so
Courant Number mean: 0.000126239281468 max: 0.00803183473348
Time = 0.02

Inner iteration:  0

DILUPBiCG:  Solving for thetaxx, Initial residual = 1, Final residual = 2.89698820488e-16, No Iterations 1
DILUPBiCG:  Solving for thetaxy, Initial residual = 0, Final residual = 0, No Iterations 0
DILUPBiCG:  Solving for thetayy, Initial residual = 0, Final residual = 0, No Iterations 0
DILUPBiCG:  Solving for thetazz, Initial residual = 0, Final residual = 0, No Iterations 0
Coupled system: p, U
Petsc:preonly:lu: Solving coupled for p, Initial residual = 1, Final residual = 1.22699501071e-16, No Iterations 1
Petsc:preonly:lu: Solving coupled for Ux, Initial residual = 1, Final residual = 1.0441051774e-14, No Iterations 1
Petsc:preonly:lu: Solving coupled for Uy, Initial residual = 1, Final residual = 0.954737666048, No Iterations 1
time step continuity errors : sum local = 0.000591719019113, global = 3.07996202412e-16, cumulative = 3.07996202412e-16
ExecutionTime = 0.91 s  ClockTime = 9 s

Courant Number mean: 0.0663541748254 max: 2.81849621464
Time = 0.04

Inner iteration:  0

DILUPBiCG:  Solving for thetaxx, Initial residual = 0.523996860789, Final residual = 4.73451924461e-11, No Iterations 7
DILUPBiCG:  Solving for thetaxy, Initial residual = 1, Final residual = 1.24062919715e-12, No Iterations 3
DILUPBiCG:  Solving for thetayy, Initial residual = 1, Final residual = 7.32092327624e-11, No Iterations 7
DILUPBiCG:  Solving for thetazz, Initial residual = 0, Final residual = 0, No Iterations 0
Coupled system: p, U
Petsc:preonly:lu: Solving coupled for p, Initial residual = 8.77208650667e-06, Final residual = 1.21841448147e-16, No Iterations 1
Petsc:preonly:lu: Solving coupled for Ux, Initial residual = 0.469955634679, Final residual = 7.53675672278e-15, No Iterations 1
Petsc:preonly:lu: Solving coupled for Uy, Initial residual = 0.999999999994, Final residual = 3.6840292809e-13, No Iterations 1
time step continuity errors : sum local = 0.000513382913882, global = 3.67005751852e-17, cumulative = 3.44696777598e-16
ExecutionTime = 1.27 s  ClockTime = 10 s

Courant Number mean: 0.0664631413715 max: 2.84113742767
Time = 0.06

Inner iteration:  0

DILUPBiCG:  Solving for thetaxx, Initial residual = 0.20807140629, Final residual = 1.5270724141e-11, No Iterations 7
DILUPBiCG:  Solving for thetaxy, Initial residual = 0.978709492278, Final residual = 4.16074242114e-12, No Iterations 7
DILUPBiCG:  Solving for thetayy, Initial residual = 0.290862513651, Final residual = 1.27110298665e-11, No Iterations 7
DILUPBiCG:  Solving for thetazz, Initial residual = 0, Final residual = 0, No Iterations 0
Coupled system: p, U
Petsc:preonly:lu: Solving coupled for p, Initial residual = 5.135131696e-05, Final residual = 1.34937688215e-16, No Iterations 1
Petsc:preonly:lu: Solving coupled for Ux, Initial residual = 0.0822323686084, Final residual = 5.21992761698e-15, No Iterations 1
Petsc:preonly:lu: Solving coupled for Uy, Initial residual = 0.425936778777, Final residual = 3.61135432665e-14, No Iterations 1
time step continuity errors : sum local = 8.42396128273e-05, global = -1.93341012689e-18, cumulative = 3.42763367471e-16
ExecutionTime = 1.63 s  ClockTime = 10 s

Courant Number mean: 0.0639476958137 max: 2.80480678564
Time = 0.08

Inner iteration:  0

DILUPBiCG:  Solving for thetaxx, Initial residual = 0.172246176748, Final residual = 7.28355365926e-11, No Iterations 6
DILUPBiCG:  Solving for thetaxy, Initial residual = 0.322924917833, Final residual = 3.64981407496e-11, No Iterations 6
DILUPBiCG:  Solving for thetayy, Initial residual = 0.176713629707, Final residual = 6.99794798543e-11, No Iterations 6
DILUPBiCG:  Solving for thetazz, Initial residual = 0, Final residual = 0, No Iterations 0
Coupled system: p, U
Petsc:preonly:lu: Solving coupled for p, Initial residual = 0.000405473026211, Final residual = 1.22039114585e-16, No Iterations 1
Petsc:preonly:lu: Solving coupled for Ux, Initial residual = 0.0277884183293, Final residual = 5.23981474719e-15, No Iterations 1
Petsc:preonly:lu: Solving coupled for Uy, Initial residual = 0.137368686252, Final residual = 5.7133563577e-14, No Iterations 1
time step continuity errors : sum local = 1.26029900536e-05, global = 4.3545662773e-18, cumulative = 3.47117933748e-16
ExecutionTime = 1.69 s  ClockTime = 10 s

Courant Number mean: 0.0640877004288 max: 2.8007275895
Time = 0.1

Inner iteration:  0

DILUPBiCG:  Solving for thetaxx, Initial residual = 0.0792053347103, Final residual = 2.36218151856e-11, No Iterations 6
DILUPBiCG:  Solving for thetaxy, Initial residual = 0.192330560838, Final residual = 1.88092050854e-11, No Iterations 6
DILUPBiCG:  Solving for thetayy, Initial residual = 0.0820026374884, Final residual = 2.48520594651e-11, No Iterations 6
DILUPBiCG:  Solving for thetazz, Initial residual = 0, Final residual = 0, No Iterations 0
Coupled system: p, U
Petsc:preonly:lu: Solving coupled for p, Initial residual = 4.44931035907e-05, Final residual = 1.21059552754e-16, No Iterations 1
Petsc:preonly:lu: Solving coupled for Ux, Initial residual = 0.0157007807853, Final residual = 5.13316415451e-15, No Iterations 1
Petsc:preonly:lu: Solving coupled for Uy, Initial residual = 0.106697736801, Final residual = 1.01006489392e-13, No Iterations 1
time step continuity errors : sum local = 6.42609717725e-06, global = 6.78541274606e-18, cumulative = 3.53903346494e-16
ExecutionTime = 1.76 s  ClockTime = 10 s

Courant Number mean: 0.0642390864653 max: 2.80145665367
Time = 0.12

Inner iteration:  0

DILUPBiCG:  Solving for thetaxx, Initial residual = 0.0460089615694, Final residual = 1.10055680126e-11, No Iterations 6
DILUPBiCG:  Solving for thetaxy, Initial residual = 0.136420861175, Final residual = 1.4715204306e-11, No Iterations 6
DILUPBiCG:  Solving for thetayy, Initial residual = 0.0475431283147, Final residual = 1.15124959536e-11, No Iterations 6
DILUPBiCG:  Solving for thetazz, Initial residual = 0, Final residual = 0, No Iterations 0
Coupled system: p, U
Petsc:preonly:lu: Solving coupled for p, Initial residual = 1.62168888879e-05, Final residual = 1.21497681038e-16, No Iterations 1
Petsc:preonly:lu: Solving coupled for Ux, Initial residual = 0.0145327099086, Final residual = 5.24022444197e-15, No Iterations 1
Petsc:preonly:lu: Solving coupled for Uy, Initial residual = 0.0318265419032, Final residual = 9.82086469013e-14, No Iterations 1
time step continuity errors : sum local = 5.14582661153e-07, global = 6.71616392448e-18, cumulative = 3.60619510419e-16
ExecutionTime = 1.83 s  ClockTime = 10 s

Courant Number mean: 0.0643915167041 max: 2.80466247081
Time = 0.14

Inner iteration:  0

DILUPBiCG:  Solving for thetaxx, Initial residual = 0.0314224502619, Final residual = 6.58166819196e-12, No Iterations 6
DILUPBiCG:  Solving for thetaxy, Initial residual = 0.104922287497, Final residual = 4.2262722274e-11, No Iterations 6
DILUPBiCG:  Solving for thetayy, Initial residual = 0.0324772297667, Final residual = 6.66132851137e-12, No Iterations 6
DILUPBiCG:  Solving for thetazz, Initial residual = 0, Final residual = 0, No Iterations 0
Coupled system: p, U
Petsc:preonly:lu: Solving coupled for p, Initial residual = 4.92386148904e-06, Final residual = 1.20652047368e-16, No Iterations 1
Petsc:preonly:lu: Solving coupled for Ux, Initial residual = 0.0125561129134, Final residual = 5.06671272663e-15, No Iterations 1
Petsc:preonly:lu: Solving coupled for Uy, Initial residual = 0.0252989937078, Final residual = 9.36747131187e-14, No Iterations 1
time step continuity errors : sum local = 8.48044109743e-07, global = 6.43070329648e-18, cumulative = 3.67050213715e-16
ExecutionTime = 1.9 s  ClockTime = 10 s

Courant Number mean: 0.0645549467509 max: 2.80539797648
Time = 0.16

Inner iteration:  0

DILUPBiCG:  Solving for thetaxx, Initial residual = 0.0236682685192, Final residual = 4.68627061696e-12, No Iterations 6
DILUPBiCG:  Solving for thetaxy, Initial residual = 0.084656598101, Final residual = 7.71384993503e-13, No Iterations 7
DILUPBiCG:  Solving for thetayy, Initial residual = 0.0245565895546, Final residual = 5.04628594946e-12, No Iterations 6
DILUPBiCG:  Solving for thetazz, Initial residual = 0, Final residual = 0, No Iterations 0
Coupled system: p, U
Petsc:preonly:lu: Solving coupled for p, Initial residual = 1.9718602044e-06, Final residual = 1.2165454465e-16, No Iterations 1
Petsc:preonly:lu: Solving coupled for Ux, Initial residual = 0.010904019555, Final residual = 5.00870092934e-15, No Iterations 1
Petsc:preonly:lu: Solving coupled for Uy, Initial residual = 0.016631209317, Final residual = 8.90305665613e-14, No Iterations 1
time step continuity errors : sum local = 4.74503132449e-07, global = 6.23800556763e-18, cumulative = 3.73288219283e-16
ExecutionTime = 1.98 s  ClockTime = 10 s

Courant Number mean: 0.0647091777333 max: 2.80514236915
Time = 0.18

Inner iteration:  0

DILUPBiCG:  Solving for thetaxx, Initial residual = 0.0190073972206, Final residual = 7.69649910533e-11, No Iterations 5
DILUPBiCG:  Solving for thetaxy, Initial residual = 0.0705546225584, Final residual = 6.76056509132e-11, No Iterations 6
DILUPBiCG:  Solving for thetayy, Initial residual = 0.0198068681693, Final residual = 4.25631382094e-12, No Iterations 6
DILUPBiCG:  Solving for thetazz, Initial residual = 0, Final residual = 0, No Iterations 0
Coupled system: p, U
Petsc:preonly:lu: Solving coupled for p, Initial residual = 1.03974700088e-06, Final residual = 1.25372224257e-16, No Iterations 1
Petsc:preonly:lu: Solving coupled for Ux, Initial residual = 0.00967040229402, Final residual = 5.01526719641e-15, No Iterations 1
Petsc:preonly:lu: Solving coupled for Uy, Initial residual = 0.0132684647721, Final residual = 8.61126547205e-14, No Iterations 1
time step continuity errors : sum local = 3.00818618241e-07, global = 6.15912122873e-18, cumulative = 3.79447340511e-16
ExecutionTime = 2.05 s  ClockTime = 11 s

Courant Number mean: 0.0648523142952 max: 2.80753942282
Time = 0.2

Inner iteration:  0

DILUPBiCG:  Solving for thetaxx, Initial residual = 0.0159529706866, Final residual = 5.62667676959e-11, No Iterations 5
DILUPBiCG:  Solving for thetaxy, Initial residual = 0.0602023425711, Final residual = 7.87166943453e-11, No Iterations 6
DILUPBiCG:  Solving for thetayy, Initial residual = 0.0167058575988, Final residual = 8.29818504507e-11, No Iterations 5
DILUPBiCG:  Solving for thetazz, Initial residual = 0, Final residual = 0, No Iterations 0
Coupled system: p, U
Petsc:preonly:lu: Solving coupled for p, Initial residual = 5.67295483492e-07, Final residual = 1.22435540516e-16, No Iterations 1
Petsc:preonly:lu: Solving coupled for Ux, Initial residual = 0.00869204034218, Final residual = 4.89141137326e-15, No Iterations 1
Petsc:preonly:lu: Solving coupled for Uy, Initial residual = 0.0111804976249, Final residual = 8.36890677119e-14, No Iterations 1
time step continuity errors : sum local = 2.49531542916e-07, global = 6.17501165493e-18, cumulative = 3.85622352166e-16
ExecutionTime = 2.11 s  ClockTime = 11 s

Courant Number mean: 0.0649859001601 max: 2.80897147461
Time = 0.22

Inner iteration:  0

DILUPBiCG:  Solving for thetaxx, Initial residual = 0.0138123712083, Final residual = 4.69873266999e-11, No Iterations 5
DILUPBiCG:  Solving for thetaxy, Initial residual = 0.0522967173932, Final residual = 8.63446120018e-11, No Iterations 6
DILUPBiCG:  Solving for thetayy, Initial residual = 0.0145569363342, Final residual = 7.30913221767e-11, No Iterations 5
DILUPBiCG:  Solving for thetazz, Initial residual = 0, Final residual = 0, No Iterations 0
Coupled system: p, U
Petsc:preonly:lu: Solving coupled for p, Initial residual = 3.84805318249e-07, Final residual = 1.22029792533e-16, No Iterations 1
Petsc:preonly:lu: Solving coupled for Ux, Initial residual = 0.00788251704874, Final residual = 4.79385209605e-15, No Iterations 1
Petsc:preonly:lu: Solving coupled for Uy, Initial residual = 0.00961792282192, Final residual = 8.09805381137e-14, No Iterations 1
time step continuity errors : sum local = 2.19902776309e-07, global = 6.07034458291e-18, cumulative = 3.91692696749e-16
ExecutionTime = 2.18 s  ClockTime = 11 s

Courant Number mean: 0.0651110562863 max: 2.8098189491
Time = 0.24

Inner iteration:  0

DILUPBiCG:  Solving for thetaxx, Initial residual = 0.0122376860956, Final residual = 4.53407400935e-11, No Iterations 5
DILUPBiCG:  Solving for thetaxy, Initial residual = 0.0460740258636, Final residual = 8.57510079886e-11, No Iterations 6
DILUPBiCG:  Solving for thetayy, Initial residual = 0.0129945915397, Final residual = 7.23129415899e-11, No Iterations 5
DILUPBiCG:  Solving for thetazz, Initial residual = 0, Final residual = 0, No Iterations 0
Coupled system: p, U
Petsc:preonly:lu: Solving coupled for p, Initial residual = 3.13185540113e-07, Final residual = 1.21131952146e-16, No Iterations 1
Petsc:preonly:lu: Solving coupled for Ux, Initial residual = 0.00719770345321, Final residual = 4.9211046522e-15, No Iterations 1
Petsc:preonly:lu: Solving coupled for Uy, Initial residual = 0.00844437982152, Final residual = 7.9799031009e-14, No Iterations 1
time step continuity errors : sum local = 1.92424885904e-07, global = 6.02526338791e-18, cumulative = 3.97717960137e-16
ExecutionTime = 2.25 s  ClockTime = 11 s

Courant Number mean: 0.0652284312481 max: 2.81030974628
Time = 0.26

Inner iteration:  0

DILUPBiCG:  Solving for thetaxx, Initial residual = 0.0110339237381, Final residual = 4.23418804614e-11, No Iterations 5
DILUPBiCG:  Solving for thetaxy, Initial residual = 0.0410595355724, Final residual = 8.34308032183e-11, No Iterations 6
DILUPBiCG:  Solving for thetayy, Initial residual = 0.0118171011738, Final residual = 7.15622631894e-11, No Iterations 5
DILUPBiCG:  Solving for thetazz, Initial residual = 0, Final residual = 0, No Iterations 0
Coupled system: p, U
Petsc:preonly:lu: Solving coupled for p, Initial residual = 2.81171373802e-07, Final residual = 1.21686839469e-16, No Iterations 1
Petsc:preonly:lu: Solving coupled for Ux, Initial residual = 0.0066090906961, Final residual = 4.88589765371e-15, No Iterations 1
Petsc:preonly:lu: Solving coupled for Uy, Initial residual = 0.00749781621305, Final residual = 7.79369345671e-14, No Iterations 1
time step continuity errors : sum local = 1.68708163325e-07, global = 5.98543451034e-18, cumulative = 4.03703394647e-16
ExecutionTime = 2.32 s  ClockTime = 11 s

Courant Number mean: 0.0653385630574 max: 2.81058004049
Time = 0.28

Inner iteration:  0

DILUPBiCG:  Solving for thetaxx, Initial residual = 0.0100861184818, Final residual = 2.97541552437e-11, No Iterations 5
DILUPBiCG:  Solving for thetaxy, Initial residual = 0.0369591428855, Final residual = 8.94436863373e-11, No Iterations 6
DILUPBiCG:  Solving for thetayy, Initial residual = 0.0109034896915, Final residual = 5.89674562086e-11, No Iterations 5
DILUPBiCG:  Solving for thetazz, Initial residual = 0, Final residual = 0, No Iterations 0
Coupled system: p, U
Petsc:preonly:lu: Solving coupled for p, Initial residual = 2.55536445802e-07, Final residual = 1.19313930004e-16, No Iterations 1
Petsc:preonly:lu: Solving coupled for Ux, Initial residual = 0.00609584545365, Final residual = 4.77928917812e-15, No Iterations 1
Petsc:preonly:lu: Solving coupled for Uy, Initial residual = 0.00671031804807, Final residual = 7.72940362787e-14, No Iterations 1
time step continuity errors : sum local = 1.49383932758e-07, global = 6.03756106555e-18, cumulative = 4.09740955713e-16
ExecutionTime = 2.39 s  ClockTime = 11 s

Courant Number mean: 0.0654419148033 max: 2.81071172387
Time = 0.3

Inner iteration:  0

DILUPBiCG:  Solving for thetaxx, Initial residual = 0.00931993294829, Final residual = 3.38786565036e-11, No Iterations 5
DILUPBiCG:  Solving for thetaxy, Initial residual = 0.0335371041003, Final residual = 3.16962685523e-13, No Iterations 7
DILUPBiCG:  Solving for thetayy, Initial residual = 0.0101786439604, Final residual = 3.78927482771e-11, No Iterations 5
DILUPBiCG:  Solving for thetazz, Initial residual = 0, Final residual = 0, No Iterations 0
Coupled system: p, U
Petsc:preonly:lu: Solving coupled for p, Initial residual = 2.32787881122e-07, Final residual = 1.22410203014e-16, No Iterations 1
Petsc:preonly:lu: Solving coupled for Ux, Initial residual = 0.00564351336136, Final residual = 4.86811008496e-15, No Iterations 1
Petsc:preonly:lu: Solving coupled for Uy, Initial residual = 0.00605326456958, Final residual = 7.5518284142e-14, No Iterations 1
time step continuity errors : sum local = 1.33657890563e-07, global = 5.87983675652e-18, cumulative = 4.15620792469e-16
ExecutionTime = 2.45 s  ClockTime = 11 s

Courant Number mean: 0.0655388997785 max: 2.81075418162
Time = 0.32

Inner iteration:  0

DILUPBiCG:  Solving for thetaxx, Initial residual = 0.00868801740465, Final residual = 4.59176549314e-11, No Iterations 5
DILUPBiCG:  Solving for thetaxy, Initial residual = 0.0306460842173, Final residual = 2.67660591914e-13, No Iterations 7
DILUPBiCG:  Solving for thetayy, Initial residual = 0.00959385664827, Final residual = 4.22542783663e-11, No Iterations 5
DILUPBiCG:  Solving for thetazz, Initial residual = 0, Final residual = 0, No Iterations 0
Coupled system: p, U
Petsc:preonly:lu: Solving coupled for p, Initial residual = 2.13694265576e-07, Final residual = 1.20543651075e-16, No Iterations 1
Petsc:preonly:lu: Solving coupled for Ux, Initial residual = 0.00524050799896, Final residual = 4.6946058888e-15, No Iterations 1
Petsc:preonly:lu: Solving coupled for Uy, Initial residual = 0.00550057206248, Final residual = 7.43903946275e-14, No Iterations 1
time step continuity errors : sum local = 1.20561641575e-07, global = 5.94587600232e-18, cumulative = 4.21566668472e-16
ExecutionTime = 2.52 s  ClockTime = 11 s

Courant Number mean: 0.0656298868327 max: 2.81073752473
Time = 0.34

Inner iteration:  0

DILUPBiCG:  Solving for thetaxx, Initial residual = 0.00815849269806, Final residual = 5.32099480816e-11, No Iterations 5
DILUPBiCG:  Solving for thetaxy, Initial residual = 0.028170000471, Final residual = 2.28485895315e-13, No Iterations 7
DILUPBiCG:  Solving for thetayy, Initial residual = 0.00911642261086, Final residual = 4.72308970407e-11, No Iterations 5
DILUPBiCG:  Solving for thetazz, Initial residual = 0, Final residual = 0, No Iterations 0
Coupled system: p, U
Petsc:preonly:lu: Solving coupled for p, Initial residual = 1.97938979155e-07, Final residual = 1.20185953317e-16, No Iterations 1
Petsc:preonly:lu: Solving coupled for Ux, Initial residual = 0.00487892410765, Final residual = 4.7083738071e-15, No Iterations 1
Petsc:preonly:lu: Solving coupled for Uy, Initial residual = 0.0050299979408, Final residual = 7.29581810039e-14, No Iterations 1
time step continuity errors : sum local = 1.09461040438e-07, global = 5.86269734811e-18, cumulative = 4.2742936582e-16
ExecutionTime = 2.59 s  ClockTime = 11 s

Courant Number mean: 0.0657152020256 max: 2.81068038069
Time = 0.36

Inner iteration:  0

DILUPBiCG:  Solving for thetaxx, Initial residual = 0.00770759038376, Final residual = 5.41701767691e-11, No Iterations 5
DILUPBiCG:  Solving for thetaxy, Initial residual = 0.0260286560927, Final residual = 2.02510932324e-13, No Iterations 7
DILUPBiCG:  Solving for thetayy, Initial residual = 0.00872249048909, Final residual = 4.90549873177e-11, No Iterations 5
DILUPBiCG:  Solving for thetazz, Initial residual = 0, Final residual = 0, No Iterations 0
Coupled system: p, U
Petsc:preonly:lu: Solving coupled for p, Initial residual = 1.84780056412e-07, Final residual = 1.19722802791e-16, No Iterations 1
Petsc:preonly:lu: Solving coupled for Ux, Initial residual = 0.00455093118239, Final residual = 4.72935124843e-15, No Iterations 1
Petsc:preonly:lu: Solving coupled for Uy, Initial residual = 0.00462879985379, Final residual = 7.346155792e-14, No Iterations 1
time step continuity errors : sum local = 1.00064153675e-07, global = 5.83812253654e-18, cumulative = 4.33267488356e-16
ExecutionTime = 2.65 s  ClockTime = 11 s

Courant Number mean: 0.0657951376622 max: 2.81059413332
Time = 0.38

Inner iteration:  0

DILUPBiCG:  Solving for thetaxx, Initial residual = 0.00731947204181, Final residual = 5.27392398334e-11, No Iterations 5
DILUPBiCG:  Solving for thetaxy, Initial residual = 0.0241587098102, Final residual = 4.93483210654e-11, No Iterations 6
DILUPBiCG:  Solving for thetayy, Initial residual = 0.0083950134091, Final residual = 5.6858081392e-12, No Iterations 6
DILUPBiCG:  Solving for thetazz, Initial residual = 0, Final residual = 0, No Iterations 0
Coupled system: p, U
Petsc:preonly:lu: Solving coupled for p, Initial residual = 1.73534977166e-07, Final residual = 1.18508837462e-16, No Iterations 1
Petsc:preonly:lu: Solving coupled for Ux, Initial residual = 0.00425066600378, Final residual = 4.76522479307e-15, No Iterations 1
Petsc:preonly:lu: Solving coupled for Uy, Initial residual = 0.00429196449615, Final residual = 7.18279087831e-14, No Iterations 1
time step continuity errors : sum local = 9.20462809153e-08, global = 5.9617613494e-18, cumulative = 4.39229249706e-16
ExecutionTime = 2.72 s  ClockTime = 11 s

Courant Number mean: 0.0658699642962 max: 2.810485291
Time = 0.4

Inner iteration:  0

DILUPBiCG:  Solving for thetaxx, Initial residual = 0.00698118123621, Final residual = 5.62761646271e-11, No Iterations 5
DILUPBiCG:  Solving for thetaxy, Initial residual = 0.0225107680902, Final residual = 3.09016515269e-11, No Iterations 6
DILUPBiCG:  Solving for thetayy, Initial residual = 0.00812170552646, Final residual = 6.27515974312e-12, No Iterations 6
DILUPBiCG:  Solving for thetazz, Initial residual = 0, Final residual = 0, No Iterations 0
Coupled system: p, U
Petsc:preonly:lu: Solving coupled for p, Initial residual = 1.64291608258e-07, Final residual = 1.20260332977e-16, No Iterations 1
Petsc:preonly:lu: Solving coupled for Ux, Initial residual = 0.00397509656002, Final residual = 4.66982819766e-15, No Iterations 1
Petsc:preonly:lu: Solving coupled for Uy, Initial residual = 0.00399631802638, Final residual = 7.02022638081e-14, No Iterations 1
time step continuity errors : sum local = 8.52193654056e-08, global = 5.85156819542e-18, cumulative = 4.45080817901e-16
ExecutionTime = 2.78 s  ClockTime = 11 s

Courant Number mean: 0.0659399448476 max: 2.81035712197
Time = 0.42

Inner iteration:  0

DILUPBiCG:  Solving for thetaxx, Initial residual = 0.00668355701049, Final residual = 2.25994699429e-12, No Iterations 6
DILUPBiCG:  Solving for thetaxy, Initial residual = 0.0210439711858, Final residual = 8.90567158393e-11, No Iterations 5
DILUPBiCG:  Solving for thetayy, Initial residual = 0.00789281144782, Final residual = 4.74047282292e-12, No Iterations 6
DILUPBiCG:  Solving for thetazz, Initial residual = 0, Final residual = 0, No Iterations 0
Coupled system: p, U
Petsc:preonly:lu: Solving coupled for p, Initial residual = 1.56642311813e-07, Final residual = 1.19128679271e-16, No Iterations 1
Petsc:preonly:lu: Solving coupled for Ux, Initial residual = 0.0037200009673, Final residual = 4.65826824536e-15, No Iterations 1
Petsc:preonly:lu: Solving coupled for Uy, Initial residual = 0.00373244140652, Final residual = 7.08311280965e-14, No Iterations 1
time step continuity errors : sum local = 7.92207233188e-08, global = 5.86415927908e-18, cumulative = 4.5094497718e-16
ExecutionTime = 2.85 s  ClockTime = 11 s

Courant Number mean: 0.0660053357499 max: 2.8102104192
Time = 0.44

Inner iteration:  0

DILUPBiCG:  Solving for thetaxx, Initial residual = 0.00641954311918, Final residual = 8.46247096595e-11, No Iterations 5
DILUPBiCG:  Solving for thetaxy, Initial residual = 0.0197277701752, Final residual = 7.73949366215e-11, No Iterations 5
DILUPBiCG:  Solving for thetayy, Initial residual = 0.00770107322925, Final residual = 4.87516940229e-12, No Iterations 6
DILUPBiCG:  Solving for thetazz, Initial residual = 0, Final residual = 0, No Iterations 0
Coupled system: p, U
Petsc:preonly:lu: Solving coupled for p, Initial residual = 1.49888328976e-07, Final residual = 1.19621915682e-16, No Iterations 1
Petsc:preonly:lu: Solving coupled for Ux, Initial residual = 0.00348262725816, Final residual = 4.71392835217e-15, No Iterations 1
Petsc:preonly:lu: Solving coupled for Uy, Initial residual = 0.00349811816112, Final residual = 6.95760489947e-14, No Iterations 1
time step continuity errors : sum local = 7.39179599644e-08, global = 5.894547604e-18, cumulative = 4.56839524784e-16
ExecutionTime = 2.91 s  ClockTime = 11 s

Courant Number mean: 0.0660664004826 max: 2.81004426688
Time = 0.46

Inner iteration:  0

DILUPBiCG:  Solving for thetaxx, Initial residual = 0.00618316767668, Final residual = 3.7184873232e-11, No Iterations 5
DILUPBiCG:  Solving for thetaxy, Initial residual = 0.0185394607433, Final residual = 6.75273784599e-11, No Iterations 5
DILUPBiCG:  Solving for thetayy, Initial residual = 0.00754341910281, Final residual = 5.26848841623e-12, No Iterations 6
DILUPBiCG:  Solving for thetazz, Initial residual = 0, Final residual = 0, No Iterations 0
Coupled system: p, U
Petsc:preonly:lu: Solving coupled for p, Initial residual = 1.44011207302e-07, Final residual = 1.19744163056e-16, No Iterations 1
Petsc:preonly:lu: Solving coupled for Ux, Initial residual = 0.00326144862599, Final residual = 4.70910239862e-15, No Iterations 1
Petsc:preonly:lu: Solving coupled for Uy, Initial residual = 0.0032880692871, Final residual = 6.8961229249e-14, No Iterations 1
time step continuity errors : sum local = 6.91887244478e-08, global = 5.92679391092e-18, cumulative = 4.62766318695e-16
ExecutionTime = 2.98 s  ClockTime = 11 s

Courant Number mean: 0.0661233487598 max: 2.80985704509
Time = 0.48

Inner iteration:  0

DILUPBiCG:  Solving for thetaxx, Initial residual = 0.00597067839415, Final residual = 6.52765266127e-11, No Iterations 5
DILUPBiCG:  Solving for thetaxy, Initial residual = 0.017460179306, Final residual = 5.93206630523e-11, No Iterations 5
DILUPBiCG:  Solving for thetayy, Initial residual = 0.00741154880001, Final residual = 5.70579504674e-12, No Iterations 6
DILUPBiCG:  Solving for thetazz, Initial residual = 0, Final residual = 0, No Iterations 0
Coupled system: p, U
Petsc:preonly:lu: Solving coupled for p, Initial residual = 1.38523397937e-07, Final residual = 1.19300165623e-16, No Iterations 1
Petsc:preonly:lu: Solving coupled for Ux, Initial residual = 0.00305483336097, Final residual = 4.67547475791e-15, No Iterations 1
Petsc:preonly:lu: Solving coupled for Uy, Initial residual = 0.00309719462202, Final residual = 6.98386708884e-14, No Iterations 1
time step continuity errors : sum local = 6.49920029145e-08, global = 5.94899233616e-18, cumulative = 4.68715311031e-16
ExecutionTime = 3.05 s  ClockTime = 12 s

Courant Number mean: 0.0661763942934 max: 2.80964679659
Time = 0.5

Inner iteration:  0

DILUPBiCG:  Solving for thetaxx, Initial residual = 0.00577788650002, Final residual = 4.00030931297e-12, No Iterations 6
DILUPBiCG:  Solving for thetaxy, Initial residual = 0.0164749685286, Final residual = 5.22149223141e-11, No Iterations 5
DILUPBiCG:  Solving for thetayy, Initial residual = 0.00730047175492, Final residual = 6.15855772034e-12, No Iterations 6
DILUPBiCG:  Solving for thetazz, Initial residual = 0, Final residual = 0, No Iterations 0
Coupled system: p, U
Petsc:preonly:lu: Solving coupled for p, Initial residual = 1.33585265462e-07, Final residual = 1.17644720674e-16, No Iterations 1
Petsc:preonly:lu: Solving coupled for Ux, Initial residual = 0.00286093457105, Final residual = 4.71617925724e-15, No Iterations 1
Petsc:preonly:lu: Solving coupled for Uy, Initial residual = 0.00292043825046, Final residual = 6.86621234593e-14, No Iterations 1
time step continuity errors : sum local = 6.12966951294e-08, global = 5.9352233245e-18, cumulative = 4.74650534356e-16
ExecutionTime = 3.11 s  ClockTime = 12 s

Courant Number mean: 0.0662257555565 max: 2.80941157538
Time = 0.52

Inner iteration:  0

DILUPBiCG:  Solving for thetaxx, Initial residual = 0.00560241446549, Final residual = 6.10459035876e-12, No Iterations 6
DILUPBiCG:  Solving for thetaxy, Initial residual = 0.01557213494, Final residual = 4.44022896778e-11, No Iterations 5
DILUPBiCG:  Solving for thetayy, Initial residual = 0.0072092763704, Final residual = 6.94888043185e-12, No Iterations 6
DILUPBiCG:  Solving for thetazz, Initial residual = 0, Final residual = 0, No Iterations 0
Coupled system: p, U
Petsc:preonly:lu: Solving coupled for p, Initial residual = 1.29289910848e-07, Final residual = 1.18575028447e-16, No Iterations 1
Petsc:preonly:lu: Solving coupled for Ux, Initial residual = 0.00267862173884, Final residual = 4.65167117522e-15, No Iterations 1
Petsc:preonly:lu: Solving coupled for Uy, Initial residual = 0.00275630848742, Final residual = 6.86142655312e-14, No Iterations 1
time step continuity errors : sum local = 5.804473875e-08, global = 5.99968729477e-18, cumulative = 4.80650221651e-16
ExecutionTime = 3.18 s  ClockTime = 12 s

Courant Number mean: 0.0662716597799 max: 2.80914943329
Time = 0.54

Inner iteration:  0

DILUPBiCG:  Solving for thetaxx, Initial residual = 0.00544145065697, Final residual = 8.26791716926e-11, No Iterations 5
DILUPBiCG:  Solving for thetaxy, Initial residual = 0.0147404554619, Final residual = 3.68991139472e-11, No Iterations 5
DILUPBiCG:  Solving for thetayy, Initial residual = 0.00713758611772, Final residual = 8.14186907846e-12, No Iterations 6
DILUPBiCG:  Solving for thetazz, Initial residual = 0, Final residual = 0, No Iterations 0
Coupled system: p, U
Petsc:preonly:lu: Solving coupled for p, Initial residual = 1.25250199325e-07, Final residual = 1.19001351019e-16, No Iterations 1
Petsc:preonly:lu: Solving coupled for Ux, Initial residual = 0.00250692108083, Final residual = 4.59990434409e-15, No Iterations 1
Petsc:preonly:lu: Solving coupled for Uy, Initial residual = 0.00260360492667, Final residual = 6.89060546736e-14, No Iterations 1
time step continuity errors : sum local = 5.50602925219e-08, global = 5.79071200389e-18, cumulative = 4.86440933655e-16
ExecutionTime = 3.25 s  ClockTime = 12 s

Courant Number mean: 0.0663142879729 max: 2.80885904647
Time = 0.56

Inner iteration:  0

DILUPBiCG:  Solving for thetaxx, Initial residual = 0.00529332412738, Final residual = 5.66020899801e-11, No Iterations 5
DILUPBiCG:  Solving for thetaxy, Initial residual = 0.0139724048542, Final residual = 3.11704149307e-11, No Iterations 5
DILUPBiCG:  Solving for thetayy, Initial residual = 0.00708364485331, Final residual = 9.96297695679e-12, No Iterations 6
DILUPBiCG:  Solving for thetazz, Initial residual = 0, Final residual = 0, No Iterations 0
Coupled system: p, U
Petsc:preonly:lu: Solving coupled for p, Initial residual = 1.21404064283e-07, Final residual = 1.18264531479e-16, No Iterations 1
Petsc:preonly:lu: Solving coupled for Ux, Initial residual = 0.00234498127607, Final residual = 4.63295796242e-15, No Iterations 1
Petsc:preonly:lu: Solving coupled for Uy, Initial residual = 0.00246096126363, Final residual = 7.00828549552e-14, No Iterations 1
time step continuity errors : sum local = 5.23446495095e-08, global = 5.92853193297e-18, cumulative = 4.92369465588e-16
ExecutionTime = 3.31 s  ClockTime = 12 s

Courant Number mean: 0.0663538330681 max: 2.80853960274
Time = 0.58

Inner iteration:  0

DILUPBiCG:  Solving for thetaxx, Initial residual = 0.00515629047665, Final residual = 4.4843112789e-11, No Iterations 5
DILUPBiCG:  Solving for thetaxy, Initial residual = 0.0132608178033, Final residual = 2.67966558806e-11, No Iterations 5
DILUPBiCG:  Solving for thetayy, Initial residual = 0.0070403636041, Final residual = 1.3170608261e-11, No Iterations 6
DILUPBiCG:  Solving for thetazz, Initial residual = 0, Final residual = 0, No Iterations 0
Coupled system: p, U
Petsc:preonly:lu: Solving coupled for p, Initial residual = 1.17560645389e-07, Final residual = 1.18369981441e-16, No Iterations 1
Petsc:preonly:lu: Solving coupled for Ux, Initial residual = 0.00219211910875, Final residual = 4.63714105375e-15, No Iterations 1
Petsc:preonly:lu: Solving coupled for Uy, Initial residual = 0.00232830315217, Final residual = 6.73253377124e-14, No Iterations 1
time step continuity errors : sum local = 4.98414727794e-08, global = 5.92517052075e-18, cumulative = 4.98294636108e-16
ExecutionTime = 3.37 s  ClockTime = 12 s

Courant Number mean: 0.0663904846146 max: 2.80819112828
Time = 0.6

Inner iteration:  0

DILUPBiCG:  Solving for thetaxx, Initial residual = 0.00502884513052, Final residual = 3.76668137719e-11, No Iterations 5
DILUPBiCG:  Solving for thetaxy, Initial residual = 0.0125987638099, Final residual = 2.30036102725e-11, No Iterations 5
DILUPBiCG:  Solving for thetayy, Initial residual = 0.00700390253671, Final residual = 2.01211344402e-11, No Iterations 6
DILUPBiCG:  Solving for thetazz, Initial residual = 0, Final residual = 0, No Iterations 0
Coupled system: p, U
Petsc:preonly:lu: Solving coupled for p, Initial residual = 1.14241322301e-07, Final residual = 1.19425257214e-16, No Iterations 1
Petsc:preonly:lu: Solving coupled for Ux, Initial residual = 0.00204773268867, Final residual = 4.7136507684e-15, No Iterations 1
Petsc:preonly:lu: Solving coupled for Uy, Initial residual = 0.00220394248917, Final residual = 6.80418821475e-14, No Iterations 1
time step continuity errors : sum local = 4.75026567851e-08, global = 5.86004850712e-18, cumulative = 5.04154684615e-16
ExecutionTime = 3.44 s  ClockTime = 12 s

Courant Number mean: 0.0664244420133 max: 2.80781416167
Time = 0.62

Inner iteration:  0

DILUPBiCG:  Solving for thetaxx, Initial residual = 0.00491013864522, Final residual = 3.27034832618e-11, No Iterations 5
DILUPBiCG:  Solving for thetaxy, Initial residual = 0.0119815257755, Final residual = 2.07608170202e-11, No Iterations 5
DILUPBiCG:  Solving for thetayy, Initial residual = 0.00697913276752, Final residual = 4.55438994976e-11, No Iterations 6
DILUPBiCG:  Solving for thetazz, Initial residual = 0, Final residual = 0, No Iterations 0
Coupled system: p, U
Petsc:preonly:lu: Solving coupled for p, Initial residual = 1.11485870356e-07, Final residual = 1.1810225036e-16, No Iterations 1
Petsc:preonly:lu: Solving coupled for Ux, Initial residual = 0.00191115542563, Final residual = 4.62494595734e-15, No Iterations 1
Petsc:preonly:lu: Solving coupled for Uy, Initial residual = 0.00208816898912, Final residual = 6.85975891472e-14, No Iterations 1
time step continuity errors : sum local = 4.52662352416e-08, global = 5.96733576362e-18, cumulative = 5.10122020379e-16
ExecutionTime = 3.5 s  ClockTime = 12 s

Courant Number mean: 0.0664558578456 max: 2.80740955012
Time = 0.64

Inner iteration:  0

DILUPBiCG:  Solving for thetaxx, Initial residual = 0.00479865117039, Final residual = 2.90335183326e-11, No Iterations 5
DILUPBiCG:  Solving for thetaxy, Initial residual = 0.0114046360424, Final residual = 2.08047973509e-11, No Iterations 5
DILUPBiCG:  Solving for thetayy, Initial residual = 0.00696221514413, Final residual = 4.51736725047e-13, No Iterations 7
DILUPBiCG:  Solving for thetazz, Initial residual = 0, Final residual = 0, No Iterations 0
Coupled system: p, U
Petsc:preonly:lu: Solving coupled for p, Initial residual = 1.09239908236e-07, Final residual = 1.17530908465e-16, No Iterations 1
Petsc:preonly:lu: Solving coupled for Ux, Initial residual = 0.0017818837054, Final residual = 4.56106599171e-15, No Iterations 1
Petsc:preonly:lu: Solving coupled for Uy, Initial residual = 0.00197992212234, Final residual = 6.79781409469e-14, No Iterations 1
time step continuity errors : sum local = 4.31319706714e-08, global = 5.89790110014e-18, cumulative = 5.16019921479e-16
ExecutionTime = 3.57 s  ClockTime = 12 s

Courant Number mean: 0.0664848946623 max: 2.80697855417
Time = 0.66

Inner iteration:  0

DILUPBiCG:  Solving for thetaxx, Initial residual = 0.00469410995416, Final residual = 2.62370881056e-11, No Iterations 5
DILUPBiCG:  Solving for thetaxy, Initial residual = 0.0108639272499, Final residual = 2.0979609273e-11, No Iterations 5
DILUPBiCG:  Solving for thetayy, Initial residual = 0.00694895436541, Final residual = 2.67162556635e-11, No Iterations 6
DILUPBiCG:  Solving for thetazz, Initial residual = 0, Final residual = 0, No Iterations 0
Coupled system: p, U
Petsc:preonly:lu: Solving coupled for p, Initial residual = 1.07310069805e-07, Final residual = 1.21029796819e-16, No Iterations 1
Petsc:preonly:lu: Solving coupled for Ux, Initial residual = 0.00165944338427, Final residual = 4.62944204702e-15, No Iterations 1
Petsc:preonly:lu: Solving coupled for Uy, Initial residual = 0.00187878913446, Final residual = 6.84072223157e-14, No Iterations 1
time step continuity errors : sum local = 4.11566387195e-08, global = 5.91378377317e-18, cumulative = 5.21933705252e-16
ExecutionTime = 3.63 s  ClockTime = 12 s

Courant Number mean: 0.0665117070855 max: 2.80652252955
Time = 0.68

Inner iteration:  0

DILUPBiCG:  Solving for thetaxx, Initial residual = 0.00459528763827, Final residual = 2.39806690175e-11, No Iterations 5
DILUPBiCG:  Solving for thetaxy, Initial residual = 0.0103560686824, Final residual = 2.17833253648e-11, No Iterations 5
DILUPBiCG:  Solving for thetayy, Initial residual = 0.0069434883674, Final residual = 8.24370451921e-11, No Iterations 5
DILUPBiCG:  Solving for thetazz, Initial residual = 0, Final residual = 0, No Iterations 0
Coupled system: p, U
Petsc:preonly:lu: Solving coupled for p, Initial residual = 1.05216023977e-07, Final residual = 1.18650513779e-16, No Iterations 1
Petsc:preonly:lu: Solving coupled for Ux, Initial residual = 0.00154354105655, Final residual = 4.58899730752e-15, No Iterations 1
Petsc:preonly:lu: Solving coupled for Uy, Initial residual = 0.00178571127908, Final residual = 6.70703614627e-14, No Iterations 1
time step continuity errors : sum local = 3.94145680243e-08, global = 5.87682967742e-18, cumulative = 5.2781053493e-16
ExecutionTime = 3.7 s  ClockTime = 12 s

Courant Number mean: 0.0665364490861 max: 2.80604295465
Time = 0.7

Inner iteration:  0

DILUPBiCG:  Solving for thetaxx, Initial residual = 0.00450173734692, Final residual = 2.21190524914e-11, No Iterations 5
DILUPBiCG:  Solving for thetaxy, Initial residual = 0.0098784037353, Final residual = 2.3173155775e-11, No Iterations 5
DILUPBiCG:  Solving for thetayy, Initial residual = 0.00694056814931, Final residual = 9.09098402725e-11, No Iterations 5
DILUPBiCG:  Solving for thetazz, Initial residual = 0, Final residual = 0, No Iterations 0
Coupled system: p, U
Petsc:preonly:lu: Solving coupled for p, Initial residual = 1.03162011631e-07, Final residual = 1.18722156739e-16, No Iterations 1
Petsc:preonly:lu: Solving coupled for Ux, Initial residual = 0.00143377480063, Final residual = 4.60579825808e-15, No Iterations 1
Petsc:preonly:lu: Solving coupled for Uy, Initial residual = 0.00170151381211, Final residual = 6.78637126257e-14, No Iterations 1
time step continuity errors : sum local = 3.79205207344e-08, global = 6.05581338233e-18, cumulative = 5.33866348312e-16
ExecutionTime = 3.76 s  ClockTime = 12 s

Courant Number mean: 0.0665592620552 max: 2.80554148478
Time = 0.72

Inner iteration:  0

DILUPBiCG:  Solving for thetaxx, Initial residual = 0.00441281454268, Final residual = 2.05451203393e-11, No Iterations 5
DILUPBiCG:  Solving for thetaxy, Initial residual = 0.00942831246355, Final residual = 2.40586551079e-11, No Iterations 5
DILUPBiCG:  Solving for thetayy, Initial residual = 0.00693989165702, Final residual = 9.93906541142e-11, No Iterations 5
DILUPBiCG:  Solving for thetazz, Initial residual = 0, Final residual = 0, No Iterations 0
Coupled system: p, U
Petsc:preonly:lu: Solving coupled for p, Initial residual = 1.01515585867e-07, Final residual = 1.17691838703e-16, No Iterations 1
Petsc:preonly:lu: Solving coupled for Ux, Initial residual = 0.00132987235187, Final residual = 4.64341967446e-15, No Iterations 1
Petsc:preonly:lu: Solving coupled for Uy, Initial residual = 0.00162640720881, Final residual = 6.72944277265e-14, No Iterations 1
time step continuity errors : sum local = 3.79332027705e-08, global = 6.04165023121e-18, cumulative = 5.39907998543e-16
ExecutionTime = 3.83 s  ClockTime = 12 s

Courant Number mean: 0.0665802725378 max: 2.80501950189
Time = 0.74

Inner iteration:  0

DILUPBiCG:  Solving for thetaxx, Initial residual = 0.00432812839569, Final residual = 1.95354037276e-11, No Iterations 5
DILUPBiCG:  Solving for thetaxy, Initial residual = 0.00900304149558, Final residual = 2.51775958722e-11, No Iterations 5
DILUPBiCG:  Solving for thetayy, Initial residual = 0.00694345476903, Final residual = 5.15971896526e-12, No Iterations 6
DILUPBiCG:  Solving for thetazz, Initial residual = 0, Final residual = 0, No Iterations 0
Coupled system: p, U
Petsc:preonly:lu: Solving coupled for p, Initial residual = 1.00210879148e-07, Final residual = 1.17224351388e-16, No Iterations 1
Petsc:preonly:lu: Solving coupled for Ux, Initial residual = 0.00123155130433, Final residual = 4.59894084504e-15, No Iterations 1
Petsc:preonly:lu: Solving coupled for Uy, Initial residual = 0.00155657527628, Final residual = 6.75014773897e-14, No Iterations 1
time step continuity errors : sum local = 3.79105647913e-08, global = 6.04112456918e-18, cumulative = 5.45949123113e-16
ExecutionTime = 3.89 s  ClockTime = 12 s

Courant Number mean: 0.0665995973662 max: 2.80447837454
Time = 0.76

Inner iteration:  0

DILUPBiCG:  Solving for thetaxx, Initial residual = 0.00424719168663, Final residual = 1.89581778823e-11, No Iterations 5
DILUPBiCG:  Solving for thetaxy, Initial residual = 0.0086007545122, Final residual = 2.6957008232e-11, No Iterations 5
DILUPBiCG:  Solving for thetayy, Initial residual = 0.00694651842958, Final residual = 4.10816019115e-12, No Iterations 6
DILUPBiCG:  Solving for thetazz, Initial residual = 0, Final residual = 0, No Iterations 0
Coupled system: p, U
Petsc:preonly:lu: Solving coupled for p, Initial residual = 9.88054690966e-08, Final residual = 1.17812418713e-16, No Iterations 1
Petsc:preonly:lu: Solving coupled for Ux, Initial residual = 0.00113851473229, Final residual = 4.56273548662e-15, No Iterations 1
Petsc:preonly:lu: Solving coupled for Uy, Initial residual = 0.00149442058763, Final residual = 6.74226656778e-14, No Iterations 1
time step continuity errors : sum local = 3.78329717201e-08, global = 5.96821749834e-18, cumulative = 5.51917340611e-16
ExecutionTime = 3.95 s  ClockTime = 12 s

Courant Number mean: 0.0666173412686 max: 2.80391953983
Time = 0.78

Inner iteration:  0

DILUPBiCG:  Solving for thetaxx, Initial residual = 0.00416951265288, Final residual = 1.84693556695e-11, No Iterations 5
DILUPBiCG:  Solving for thetaxy, Initial residual = 0.00822022534119, Final residual = 2.94843590044e-11, No Iterations 5
DILUPBiCG:  Solving for thetayy, Initial residual = 0.00694918179399, Final residual = 3.50104877916e-12, No Iterations 6
DILUPBiCG:  Solving for thetazz, Initial residual = 0, Final residual = 0, No Iterations 0
Coupled system: p, U
Petsc:preonly:lu: Solving coupled for p, Initial residual = 9.76322430809e-08, Final residual = 1.18084439701e-16, No Iterations 1
Petsc:preonly:lu: Solving coupled for Ux, Initial residual = 0.00105049428208, Final residual = 4.66161163287e-15, No Iterations 1
Petsc:preonly:lu: Solving coupled for Uy, Initial residual = 0.00143660697377, Final residual = 6.78600979213e-14, No Iterations 1
time step continuity errors : sum local = 3.76923441122e-08, global = 5.93029604398e-18, cumulative = 5.57847636655e-16
ExecutionTime = 4.02 s  ClockTime = 13 s

Courant Number mean: 0.066633605151 max: 2.803344443
Time = 0.8

Inner iteration:  0

DILUPBiCG:  Solving for thetaxx, Initial residual = 0.00409495611969, Final residual = 1.81009628292e-11, No Iterations 5
DILUPBiCG:  Solving for thetaxy, Initial residual = 0.00785992479826, Final residual = 3.27824883388e-11, No Iterations 5
DILUPBiCG:  Solving for thetayy, Initial residual = 0.00695041840005, Final residual = 3.63212539176e-12, No Iterations 6
DILUPBiCG:  Solving for thetazz, Initial residual = 0, Final residual = 0, No Iterations 0
Coupled system: p, U
Petsc:preonly:lu: Solving coupled for p, Initial residual = 9.62758130586e-08, Final residual = 1.1806184395e-16, No Iterations 1
Petsc:preonly:lu: Solving coupled for Ux, Initial residual = 0.000967297154387, Final residual = 4.57533831441e-15, No Iterations 1
Petsc:preonly:lu: Solving coupled for Uy, Initial residual = 0.00138434012007, Final residual = 6.74096131709e-14, No Iterations 1
time step continuity errors : sum local = 3.76519000475e-08, global = 5.96107486464e-18, cumulative = 5.63808711519e-16
ExecutionTime = 4.08 s  ClockTime = 13 s

Courant Number mean: 0.06664847951 max: 2.80275438626
Time = 0.82

Inner iteration:  0

DILUPBiCG:  Solving for thetaxx, Initial residual = 0.00402303421165, Final residual = 1.78701494985e-11, No Iterations 5
DILUPBiCG:  Solving for thetaxy, Initial residual = 0.00751768087578, Final residual = 3.68502303157e-11, No Iterations 5
DILUPBiCG:  Solving for thetayy, Initial residual = 0.00694952948006, Final residual = 3.88890814585e-12, No Iterations 6
DILUPBiCG:  Solving for thetazz, Initial residual = 0, Final residual = 0, No Iterations 0
Coupled system: p, U
Petsc:preonly:lu: Solving coupled for p, Initial residual = 9.51794002259e-08, Final residual = 1.18978352254e-16, No Iterations 1
Petsc:preonly:lu: Solving coupled for Ux, Initial residual = 0.000888692387712, Final residual = 4.58820494209e-15, No Iterations 1
Petsc:preonly:lu: Solving coupled for Uy, Initial residual = 0.0013356671552, Final residual = 6.75869802359e-14, No Iterations 1
time step continuity errors : sum local = 3.74595196469e-08, global = 6.0807701439e-18, cumulative = 5.69889481663e-16
ExecutionTime = 4.15 s  ClockTime = 13 s

Courant Number mean: 0.0666620583585 max: 2.80215068195
Time = 0.84

Inner iteration:  0

DILUPBiCG:  Solving for thetaxx, Initial residual = 0.00395353155372, Final residual = 1.77901164481e-11, No Iterations 5
DILUPBiCG:  Solving for thetaxy, Initial residual = 0.00719721318233, Final residual = 4.32441637249e-11, No Iterations 5
DILUPBiCG:  Solving for thetayy, Initial residual = 0.00694467582302, Final residual = 4.12815619911e-12, No Iterations 6
DILUPBiCG:  Solving for thetazz, Initial residual = 0, Final residual = 0, No Iterations 0
Coupled system: p, U
Petsc:preonly:lu: Solving coupled for p, Initial residual = 9.39497367351e-08, Final residual = 1.17838617363e-16, No Iterations 1
Petsc:preonly:lu: Solving coupled for Ux, Initial residual = 0.000814466271451, Final residual = 4.57820518401e-15, No Iterations 1
Petsc:preonly:lu: Solving coupled for Uy, Initial residual = 0.00129153399234, Final residual = 6.73269179472e-14, No Iterations 1
time step continuity errors : sum local = 3.71138811959e-08, global = 5.95642089588e-18, cumulative = 5.75845902559e-16
ExecutionTime = 4.21 s  ClockTime = 13 s

Courant Number mean: 0.066674410695 max: 2.80153455681
Time = 0.86

Inner iteration:  0

DILUPBiCG:  Solving for thetaxx, Initial residual = 0.00388623875335, Final residual = 1.7860797789e-11, No Iterations 5
DILUPBiCG:  Solving for thetaxy, Initial residual = 0.00689245291389, Final residual = 5.38799574051e-11, No Iterations 5
DILUPBiCG:  Solving for thetayy, Initial residual = 0.00693657427894, Final residual = 4.26285182089e-12, No Iterations 6
DILUPBiCG:  Solving for thetazz, Initial residual = 0, Final residual = 0, No Iterations 0
Coupled system: p, U
Petsc:preonly:lu: Solving coupled for p, Initial residual = 9.26958530708e-08, Final residual = 1.17129706451e-16, No Iterations 1
Petsc:preonly:lu: Solving coupled for Ux, Initial residual = 0.000744569438965, Final residual = 4.64444192153e-15, No Iterations 1
Petsc:preonly:lu: Solving coupled for Uy, Initial residual = 0.00125200444063, Final residual = 6.66681176006e-14, No Iterations 1
time step continuity errors : sum local = 3.68270140009e-08, global = 6.09885223687e-18, cumulative = 5.81944754796e-16
ExecutionTime = 4.28 s  ClockTime = 13 s

Courant Number mean: 0.0666856104697 max: 2.80090723047
Time = 0.88

Inner iteration:  0

DILUPBiCG:  Solving for thetaxx, Initial residual = 0.00382092957514, Final residual = 1.81101133387e-11, No Iterations 5
DILUPBiCG:  Solving for thetaxy, Initial residual = 0.00660180898563, Final residual = 7.00377712259e-11, No Iterations 5
DILUPBiCG:  Solving for thetayy, Initial residual = 0.00692312195075, Final residual = 4.37854827978e-12, No Iterations 6
DILUPBiCG:  Solving for thetazz, Initial residual = 0, Final residual = 0, No Iterations 0
Coupled system: p, U
Petsc:preonly:lu: Solving coupled for p, Initial residual = 9.13537030362e-08, Final residual = 1.17940509212e-16, No Iterations 1
Petsc:preonly:lu: Solving coupled for Ux, Initial residual = 0.000678818954362, Final residual = 4.54646833817e-15, No Iterations 1
Petsc:preonly:lu: Solving coupled for Uy, Initial residual = 0.00121560526351, Final residual = 6.63966981537e-14, No Iterations 1
time step continuity errors : sum local = 3.65084452731e-08, global = 5.91776441275e-18, cumulative = 5.87862519209e-16
ExecutionTime = 4.34 s  ClockTime = 13 s

Courant Number mean: 0.0666957203394 max: 2.8002699278
Time = 0.9

Inner iteration:  0

DILUPBiCG:  Solving for thetaxx, Initial residual = 0.00375738562784, Final residual = 1.8576828922e-11, No Iterations 5
DILUPBiCG:  Solving for thetaxy, Initial residual = 0.0063242124361, Final residual = 9.91301280652e-11, No Iterations 5
DILUPBiCG:  Solving for thetayy, Initial residual = 0.00690473959862, Final residual = 4.44578103423e-12, No Iterations 6
DILUPBiCG:  Solving for thetazz, Initial residual = 0, Final residual = 0, No Iterations 0
Coupled system: p, U
Petsc:preonly:lu: Solving coupled for p, Initial residual = 8.97645936193e-08, Final residual = 1.16418834253e-16, No Iterations 1
Petsc:preonly:lu: Solving coupled for Ux, Initial residual = 0.000616978691739, Final residual = 4.6382001623e-15, No Iterations 1
Petsc:preonly:lu: Solving coupled for Uy, Initial residual = 0.00118191576567, Final residual = 6.60302243178e-14, No Iterations 1
time step continuity errors : sum local = 3.62382763306e-08, global = 6.03969835233e-18, cumulative = 5.93902217561e-16
ExecutionTime = 4.41 s  ClockTime = 13 s

Courant Number mean: 0.066704803748 max: 2.79962383423
Time = 0.92

Inner iteration:  0

DILUPBiCG:  Solving for thetaxx, Initial residual = 0.00369558670918, Final residual = 1.92743689421e-11, No Iterations 5
DILUPBiCG:  Solving for thetaxy, Initial residual = 0.00605881854398, Final residual = 1.23158008459e-12, No Iterations 6
DILUPBiCG:  Solving for thetayy, Initial residual = 0.00688065479442, Final residual = 4.60556389379e-12, No Iterations 6
DILUPBiCG:  Solving for thetazz, Initial residual = 0, Final residual = 0, No Iterations 0
Coupled system: p, U
Petsc:preonly:lu: Solving coupled for p, Initial residual = 8.86276572208e-08, Final residual = 1.17292828726e-16, No Iterations 1
Petsc:preonly:lu: Solving coupled for Ux, Initial residual = 0.000558835732552, Final residual = 4.71538105155e-15, No Iterations 1
Petsc:preonly:lu: Solving coupled for Uy, Initial residual = 0.00115037543907, Final residual = 6.67990636717e-14, No Iterations 1
time step continuity errors : sum local = 3.60055566133e-08, global = 6.03367654831e-18, cumulative = 5.9993589411e-16
ExecutionTime = 4.47 s  ClockTime = 13 s

Courant Number mean: 0.0667129093102 max: 2.79897009233
Time = 0.94

Inner iteration:  0

DILUPBiCG:  Solving for thetaxx, Initial residual = 0.0036352452492, Final residual = 2.01276143917e-11, No Iterations 5
DILUPBiCG:  Solving for thetaxy, Initial residual = 0.00580549288121, Final residual = 1.33193190842e-12, No Iterations 6
DILUPBiCG:  Solving for thetayy, Initial residual = 0.00684939775788, Final residual = 4.90615130599e-12, No Iterations 6
DILUPBiCG:  Solving for thetazz, Initial residual = 0, Final residual = 0, No Iterations 0
Coupled system: p, U
Petsc:preonly:lu: Solving coupled for p, Initial residual = 8.80882266946e-08, Final residual = 1.17230013869e-16, No Iterations 1
Petsc:preonly:lu: Solving coupled for Ux, Initial residual = 0.00050425028829, Final residual = 4.55467396864e-15, No Iterations 1
Petsc:preonly:lu: Solving coupled for Uy, Initial residual = 0.00112092727189, Final residual = 6.76153343089e-14, No Iterations 1
time step continuity errors : sum local = 3.58325439295e-08, global = 6.03810212209e-18, cumulative = 6.05973996232e-16
ExecutionTime = 4.54 s  ClockTime = 13 s

Courant Number mean: 0.0667200891671 max: 2.79830977809
Time = 0.96

Inner iteration:  0

DILUPBiCG:  Solving for thetaxx, Initial residual = 0.00357623456249, Final residual = 2.09398004952e-11, No Iterations 5
DILUPBiCG:  Solving for thetaxy, Initial residual = 0.00556417584336, Final residual = 1.45135399281e-12, No Iterations 6
DILUPBiCG:  Solving for thetayy, Initial residual = 0.00681171975531, Final residual = 5.37451037861e-12, No Iterations 6
DILUPBiCG:  Solving for thetazz, Initial residual = 0, Final residual = 0, No Iterations 0
Coupled system: p, U
Petsc:preonly:lu: Solving coupled for p, Initial residual = 8.76986136377e-08, Final residual = 1.17565312737e-16, No Iterations 1
Petsc:preonly:lu: Solving coupled for Ux, Initial residual = 0.000453489350163, Final residual = 4.58735013726e-15, No Iterations 1
Petsc:preonly:lu: Solving coupled for Uy, Initial residual = 0.001094073877, Final residual = 6.84986294267e-14, No Iterations 1
time step continuity errors : sum local = 3.5750191316e-08, global = 6.14759766904e-18, cumulative = 6.12121593901e-16
ExecutionTime = 4.6 s  ClockTime = 13 s

Courant Number mean: 0.066726399163 max: 2.79764392535
Time = 0.98

Inner iteration:  0

DILUPBiCG:  Solving for thetaxx, Initial residual = 0.0035184590928, Final residual = 2.14662982732e-11, No Iterations 5
DILUPBiCG:  Solving for thetaxy, Initial residual = 0.00533411532343, Final residual = 1.58524809437e-12, No Iterations 6
DILUPBiCG:  Solving for thetayy, Initial residual = 0.00676529855182, Final residual = 6.03478411173e-12, No Iterations 6
DILUPBiCG:  Solving for thetazz, Initial residual = 0, Final residual = 0, No Iterations 0
Coupled system: p, U
Petsc:preonly:lu: Solving coupled for p, Initial residual = 8.70864574302e-08, Final residual = 1.1615067809e-16, No Iterations 1
Petsc:preonly:lu: Solving coupled for Ux, Initial residual = 0.00040603066579, Final residual = 4.67029180306e-15, No Iterations 1
Petsc:preonly:lu: Solving coupled for Uy, Initial residual = 0.00106941249922, Final residual = 6.78104695146e-14, No Iterations 1
time step continuity errors : sum local = 3.55389794633e-08, global = 6.124835515e-18, cumulative = 6.18246429416e-16
ExecutionTime = 4.66 s  ClockTime = 13 s

Courant Number mean: 0.0667318842803 max: 2.79697354162
Time = 1

Inner iteration:  0

DILUPBiCG:  Solving for thetaxx, Initial residual = 0.00346201287908, Final residual = 2.15368505628e-11, No Iterations 5
DILUPBiCG:  Solving for thetaxy, Initial residual = 0.00511375797813, Final residual = 1.69635586617e-12, No Iterations 6
DILUPBiCG:  Solving for thetayy, Initial residual = 0.0067114998773, Final residual = 7.01326521057e-12, No Iterations 6
DILUPBiCG:  Solving for thetazz, Initial residual = 0, Final residual = 0, No Iterations 0
Coupled system: p, U
Petsc:preonly:lu: Solving coupled for p, Initial residual = 8.62599060486e-08, Final residual = 1.18157413424e-16, No Iterations 1
Petsc:preonly:lu: Solving coupled for Ux, Initial residual = 0.000362026833953, Final residual = 4.53884747718e-15, No Iterations 1
Petsc:preonly:lu: Solving coupled for Uy, Initial residual = 0.00104603633646, Final residual = 6.78355515976e-14, No Iterations 1
time step continuity errors : sum local = 3.53399602069e-08, global = 6.04458842162e-18, cumulative = 6.24291017837e-16
ExecutionTime = 4.73 s  ClockTime = 13 s

Courant Number mean: 0.0667365859892 max: 2.79629956411
Time = 1.02

Inner iteration:  0

DILUPBiCG:  Solving for thetaxx, Initial residual = 0.00340652059494, Final residual = 2.09046584933e-11, No Iterations 5
DILUPBiCG:  Solving for thetaxy, Initial residual = 0.0049023105119, Final residual = 7.7101550782e-11, No Iterations 5
DILUPBiCG:  Solving for thetayy, Initial residual = 0.00664911939068, Final residual = 8.37920383054e-12, No Iterations 6
DILUPBiCG:  Solving for thetazz, Initial residual = 0, Final residual = 0, No Iterations 0
Coupled system: p, U
Petsc:preonly:lu: Solving coupled for p, Initial residual = 8.59145245162e-08, Final residual = 1.15983725913e-16, No Iterations 1
Petsc:preonly:lu: Solving coupled for Ux, Initial residual = 0.000321456632525, Final residual = 4.60321991249e-15, No Iterations 1
Petsc:preonly:lu: Solving coupled for Uy, Initial residual = 0.00102535805179, Final residual = 6.68022181311e-14, No Iterations 1
time step continuity errors : sum local = 3.51731093214e-08, global = 6.03597124101e-18, cumulative = 6.30326989078e-16
ExecutionTime = 4.8 s  ClockTime = 13 s

Courant Number mean: 0.0667405482742 max: 2.795622869
Time = 1.04

Inner iteration:  0

DILUPBiCG:  Solving for thetaxx, Initial residual = 0.0033519857189, Final residual = 1.94249646519e-11, No Iterations 5
DILUPBiCG:  Solving for thetaxy, Initial residual = 0.00469902022219, Final residual = 6.24280619075e-11, No Iterations 5
DILUPBiCG:  Solving for thetayy, Initial residual = 0.00657946501773, Final residual = 1.0138855297e-11, No Iterations 6
DILUPBiCG:  Solving for thetazz, Initial residual = 0, Final residual = 0, No Iterations 0
Coupled system: p, U
Petsc:preonly:lu: Solving coupled for p, Initial residual = 8.54378237706e-08, Final residual = 1.16565072248e-16, No Iterations 1
Petsc:preonly:lu: Solving coupled for Ux, Initial residual = 0.00028439121073, Final residual = 4.58718650379e-15, No Iterations 1
Petsc:preonly:lu: Solving coupled for Uy, Initial residual = 0.0010064407461, Final residual = 6.75575121051e-14, No Iterations 1
time step continuity errors : sum local = 3.49341077265e-08, global = 6.07704773745e-18, cumulative = 6.36404036816e-16
ExecutionTime = 4.86 s  ClockTime = 13 s

Courant Number mean: 0.0667438110555 max: 2.79494433692
Time = 1.06

Inner iteration:  0

DILUPBiCG:  Solving for thetaxx, Initial residual = 0.00329836654484, Final residual = 1.73592208841e-11, No Iterations 5
DILUPBiCG:  Solving for thetaxy, Initial residual = 0.00450368044647, Final residual = 5.19193327045e-11, No Iterations 5
DILUPBiCG:  Solving for thetayy, Initial residual = 0.0065008633805, Final residual = 1.26186780532e-11, No Iterations 6
DILUPBiCG:  Solving for thetazz, Initial residual = 0, Final residual = 0, No Iterations 0
Coupled system: p, U
Petsc:preonly:lu: Solving coupled for p, Initial residual = 8.49359263635e-08, Final residual = 1.16965406923e-16, No Iterations 1
Petsc:preonly:lu: Solving coupled for Ux, Initial residual = 0.000250685019897, Final residual = 4.63815260905e-15, No Iterations 1
Petsc:preonly:lu: Solving coupled for Uy, Initial residual = 0.000989739311289, Final residual = 6.86027390547e-14, No Iterations 1
time step continuity errors : sum local = 3.47841538173e-08, global = 6.14414130152e-18, cumulative = 6.42548178117e-16
ExecutionTime = 4.92 s  ClockTime = 13 s

Courant Number mean: 0.0667464158821 max: 2.79426478457
Time = 1.08

Inner iteration:  0

DILUPBiCG:  Solving for thetaxx, Initial residual = 0.0032456054005, Final residual = 1.50235067572e-11, No Iterations 5
DILUPBiCG:  Solving for thetaxy, Initial residual = 0.00431611448682, Final residual = 4.4157084137e-11, No Iterations 5
DILUPBiCG:  Solving for thetayy, Initial residual = 0.00641341412503, Final residual = 1.65739094067e-11, No Iterations 6
DILUPBiCG:  Solving for thetazz, Initial residual = 0, Final residual = 0, No Iterations 0
Coupled system: p, U
Petsc:preonly:lu: Solving coupled for p, Initial residual = 8.45247319456e-08, Final residual = 1.1724562222e-16, No Iterations 1
Petsc:preonly:lu: Solving coupled for Ux, Initial residual = 0.000220491326681, Final residual = 4.57651421596e-15, No Iterations 1
Petsc:preonly:lu: Solving coupled for Uy, Initial residual = 0.000975669033905, Final residual = 6.88388217939e-14, No Iterations 1
time step continuity errors : sum local = 3.47407876545e-08, global = 6.03782538694e-18, cumulative = 6.48586003504e-16
ExecutionTime = 4.99 s  ClockTime = 14 s

Courant Number mean: 0.0667484089787 max: 2.7935849485
Time = 1.1

Inner iteration:  0

DILUPBiCG:  Solving for thetaxx, Initial residual = 0.00319359496746, Final residual = 1.28306268126e-11, No Iterations 5
DILUPBiCG:  Solving for thetaxy, Initial residual = 0.00413623503534, Final residual = 3.8590101252e-11, No Iterations 5
DILUPBiCG:  Solving for thetayy, Initial residual = 0.00631615190193, Final residual = 2.41535042077e-11, No Iterations 6
DILUPBiCG:  Solving for thetazz, Initial residual = 0, Final residual = 0, No Iterations 0
Coupled system: p, U
Petsc:preonly:lu: Solving coupled for p, Initial residual = 8.43423825379e-08, Final residual = 1.19590191091e-16, No Iterations 1
Petsc:preonly:lu: Solving coupled for Ux, Initial residual = 0.00019394364913, Final residual = 4.53452399717e-15, No Iterations 1
Petsc:preonly:lu: Solving coupled for Uy, Initial residual = 0.000963469674455, Final residual = 6.758106848e-14, No Iterations 1
time step continuity errors : sum local = 3.47232244447e-08, global = 6.1340442259e-18, cumulative = 6.5472004773e-16
ExecutionTime = 5.05 s  ClockTime = 14 s

Courant Number mean: 0.0667498293994 max: 2.79290555307
Time = 1.12

Inner iteration:  0

DILUPBiCG:  Solving for thetaxx, Initial residual = 0.00314228384823, Final residual = 1.10780029869e-11, No Iterations 5
DILUPBiCG:  Solving for thetaxy, Initial residual = 0.00396359869433, Final residual = 3.44737098498e-11, No Iterations 5
DILUPBiCG:  Solving for thetayy, Initial residual = 0.00621028122489, Final residual = 5.06650906919e-11, No Iterations 6
DILUPBiCG:  Solving for thetazz, Initial residual = 0, Final residual = 0, No Iterations 0
Coupled system: p, U
Petsc:preonly:lu: Solving coupled for p, Initial residual = 8.40153837999e-08, Final residual = 1.20481813003e-16, No Iterations 1
Petsc:preonly:lu: Solving coupled for Ux, Initial residual = 0.000170943430149, Final residual = 4.64781202298e-15, No Iterations 1
Petsc:preonly:lu: Solving coupled for Uy, Initial residual = 0.000951398807809, Final residual = 6.7541810714e-14, No Iterations 1
time step continuity errors : sum local = 3.4776849979e-08, global = 6.12415758622e-18, cumulative = 6.60844205316e-16
ExecutionTime = 5.12 s  ClockTime = 14 s

Courant Number mean: 0.066750715945 max: 2.79222724782
Time = 1.14

Inner iteration:  0

DILUPBiCG:  Solving for thetaxx, Initial residual = 0.00309162391822, Final residual = 9.6430772259e-12, No Iterations 5
DILUPBiCG:  Solving for thetaxy, Initial residual = 0.00379789434799, Final residual = 3.13382328498e-11, No Iterations 5
DILUPBiCG:  Solving for thetayy, Initial residual = 0.00609640906892, Final residual = 6.39168274318e-15, No Iterations 8
DILUPBiCG:  Solving for thetazz, Initial residual = 0, Final residual = 0, No Iterations 0
Coupled system: p, U
Petsc:preonly:lu: Solving coupled for p, Initial residual = 8.38830382227e-08, Final residual = 1.21366451195e-16, No Iterations 1
Petsc:preonly:lu: Solving coupled for Ux, Initial residual = 0.000151532046817, Final residual = 4.68935282741e-15, No Iterations 1
Petsc:preonly:lu: Solving coupled for Uy, Initial residual = 0.000938893891628, Final residual = 6.87047668124e-14, No Iterations 1
time step continuity errors : sum local = 3.48987289749e-08, global = 6.17609291926e-18, cumulative = 6.67020298236e-16
ExecutionTime = 5.18 s  ClockTime = 14 s

Courant Number mean: 0.0667511070644 max: 2.79155066038
Time = 1.16

Inner iteration:  0

DILUPBiCG:  Solving for thetaxx, Initial residual = 0.00304161051318, Final residual = 8.44762006207e-12, No Iterations 5
DILUPBiCG:  Solving for thetaxy, Initial residual = 0.00363879166318, Final residual = 2.86610321472e-11, No Iterations 5
DILUPBiCG:  Solving for thetayy, Initial residual = 0.00597521071409, Final residual = 2.72711842445e-11, No Iterations 6
DILUPBiCG:  Solving for thetazz, Initial residual = 0, Final residual = 0, No Iterations 0
Coupled system: p, U
Petsc:preonly:lu: Solving coupled for p, Initial residual = 8.38073262667e-08, Final residual = 1.18091591107e-16, No Iterations 1
Petsc:preonly:lu: Solving coupled for Ux, Initial residual = 0.000135726467049, Final residual = 4.69174906457e-15, No Iterations 1
Petsc:preonly:lu: Solving coupled for Uy, Initial residual = 0.000927621920975, Final residual = 6.93649951037e-14, No Iterations 1
time step continuity errors : sum local = 3.48620271377e-08, global = 6.11663621227e-18, cumulative = 6.73136934448e-16
ExecutionTime = 5.25 s  ClockTime = 14 s

Courant Number mean: 0.0667510394624 max: 2.79087638856
Time = 1.18

Inner iteration:  0

DILUPBiCG:  Solving for thetaxx, Initial residual = 0.00299222052737, Final residual = 7.50866052998e-12, No Iterations 5
DILUPBiCG:  Solving for thetaxy, Initial residual = 0.0034859709542, Final residual = 2.65332550181e-11, No Iterations 5
DILUPBiCG:  Solving for thetayy, Initial residual = 0.00584706017013, Final residual = 1.49780625965e-11, No Iterations 6
DILUPBiCG:  Solving for thetazz, Initial residual = 0, Final residual = 0, No Iterations 0
Coupled system: p, U
Petsc:preonly:lu: Solving coupled for p, Initial residual = 8.34008014687e-08, Final residual = 1.16866299695e-16, No Iterations 1
Petsc:preonly:lu: Solving coupled for Ux, Initial residual = 0.000123645250755, Final residual = 4.60153484694e-15, No Iterations 1
Petsc:preonly:lu: Solving coupled for Uy, Initial residual = 0.000916586130824, Final residual = 6.8148349689e-14, No Iterations 1
time step continuity errors : sum local = 3.47367552418e-08, global = 6.10129491908e-18, cumulative = 6.79238229367e-16
ExecutionTime = 5.31 s  ClockTime = 14 s

Courant Number mean: 0.0667505539009 max: 2.7902050347
Time = 1.2

Inner iteration:  0

DILUPBiCG:  Solving for thetaxx, Initial residual = 0.00294342233303, Final residual = 6.73965275337e-12, No Iterations 5
DILUPBiCG:  Solving for thetaxy, Initial residual = 0.00333907205447, Final residual = 2.48613702439e-11, No Iterations 5
DILUPBiCG:  Solving for thetayy, Initial residual = 0.00571199619104, Final residual = 1.02455853995e-11, No Iterations 6
DILUPBiCG:  Solving for thetazz, Initial residual = 0, Final residual = 0, No Iterations 0
Coupled system: p, U
Petsc:preonly:lu: Solving coupled for p, Initial residual = 8.26868530678e-08, Final residual = 1.17035203216e-16, No Iterations 1
Petsc:preonly:lu: Solving coupled for Ux, Initial residual = 0.000115542467805, Final residual = 4.66865939242e-15, No Iterations 1
Petsc:preonly:lu: Solving coupled for Uy, Initial residual = 0.000905723522435, Final residual = 6.82248672091e-14, No Iterations 1
time step continuity errors : sum local = 3.48169346388e-08, global = 6.09202290632e-18, cumulative = 6.85330252273e-16
ExecutionTime = 5.37 s  ClockTime = 14 s

Courant Number mean: 0.0667496888209 max: 2.78953716033
Time = 1.22

Inner iteration:  0

DILUPBiCG:  Solving for thetaxx, Initial residual = 0.00289517815983, Final residual = 6.11572424818e-12, No Iterations 5
DILUPBiCG:  Solving for thetaxy, Initial residual = 0.00319764394947, Final residual = 2.34698034368e-11, No Iterations 5
DILUPBiCG:  Solving for thetayy, Initial residual = 0.0055710322738, Final residual = 7.71878379557e-12, No Iterations 6
DILUPBiCG:  Solving for thetazz, Initial residual = 0, Final residual = 0, No Iterations 0
Coupled system: p, U
Petsc:preonly:lu: Solving coupled for p, Initial residual = 8.16145264112e-08, Final residual = 1.17566534425e-16, No Iterations 1
Petsc:preonly:lu: Solving coupled for Ux, Initial residual = 0.000112201599816, Final residual = 4.56725328693e-15, No Iterations 1
Petsc:preonly:lu: Solving coupled for Uy, Initial residual = 0.000895406326011, Final residual = 6.80951123874e-14, No Iterations 1
time step continuity errors : sum local = 3.48286520983e-08, global = 6.19708518729e-18, cumulative = 6.91527337461e-16
ExecutionTime = 5.45 s  ClockTime = 14 s

Courant Number mean: 0.0667484551498 max: 2.78887329825
Time = 1.24

Inner iteration:  0

DILUPBiCG:  Solving for thetaxx, Initial residual = 0.00284743455646, Final residual = 5.60258142252e-12, No Iterations 5
DILUPBiCG:  Solving for thetaxy, Initial residual = 0.00306150965175, Final residual = 2.22362863024e-11, No Iterations 5
DILUPBiCG:  Solving for thetayy, Initial residual = 0.00542560380918, Final residual = 8.6349081551e-11, No Iterations 5
DILUPBiCG:  Solving for thetazz, Initial residual = 0, Final residual = 0, No Iterations 0
Coupled system: p, U
Petsc:preonly:lu: Solving coupled for p, Initial residual = 8.0850326466e-08, Final residual = 1.17548762325e-16, No Iterations 1
Petsc:preonly:lu: Solving coupled for Ux, Initial residual = 0.000116931977844, Final residual = 4.64155309331e-15, No Iterations 1
Petsc:preonly:lu: Solving coupled for Uy, Initial residual = 0.000885657155038, Final residual = 6.93303161804e-14, No Iterations 1
time step continuity errors : sum local = 3.4782634252e-08, global = 6.18341455015e-18, cumulative = 6.97710752011e-16
ExecutionTime = 5.51 s  ClockTime = 14 s

Courant Number mean: 0.0667468669063 max: 2.78821395336
Time = 1.26

Inner iteration:  0

DILUPBiCG:  Solving for thetaxx, Initial residual = 0.00280018541215, Final residual = 5.18695119444e-12, No Iterations 5
DILUPBiCG:  Solving for thetaxy, Initial residual = 0.00293052668781, Final residual = 2.09888996258e-11, No Iterations 5
DILUPBiCG:  Solving for thetayy, Initial residual = 0.00527559176899, Final residual = 6.51498473006e-11, No Iterations 5
DILUPBiCG:  Solving for thetazz, Initial residual = 0, Final residual = 0, No Iterations 0
Coupled system: p, U
Petsc:preonly:lu: Solving coupled for p, Initial residual = 8.00272678929e-08, Final residual = 1.17754906193e-16, No Iterations 1
Petsc:preonly:lu: Solving coupled for Ux, Initial residual = 0.000126160200678, Final residual = 4.579428771e-15, No Iterations 1
Petsc:preonly:lu: Solving coupled for Uy, Initial residual = 0.00087532969876, Final residual = 6.88273739355e-14, No Iterations 1
time step continuity errors : sum local = 3.46067502456e-08, global = 6.17522979058e-18, cumulative = 7.03885981801e-16
ExecutionTime = 5.57 s  ClockTime = 14 s

Courant Number mean: 0.0667449499853 max: 2.78755956954
Time = 1.28

Inner iteration:  0

DILUPBiCG:  Solving for thetaxx, Initial residual = 0.00275344241218, Final residual = 4.79018429692e-12, No Iterations 5
DILUPBiCG:  Solving for thetaxy, Initial residual = 0.0028046134529, Final residual = 2.09887017189e-11, No Iterations 5
DILUPBiCG:  Solving for thetayy, Initial residual = 0.00512202663797, Final residual = 4.99363107892e-11, No Iterations 5
DILUPBiCG:  Solving for thetazz, Initial residual = 0, Final residual = 0, No Iterations 0
Coupled system: p, U
Petsc:preonly:lu: Solving coupled for p, Initial residual = 7.91781656002e-08, Final residual = 1.16746612639e-16, No Iterations 1
Petsc:preonly:lu: Solving coupled for Ux, Initial residual = 0.000135512526681, Final residual = 4.5156582487e-15, No Iterations 1
Petsc:preonly:lu: Solving coupled for Uy, Initial residual = 0.000866222452049, Final residual = 7.0045979724e-14, No Iterations 1
time step continuity errors : sum local = 3.44126780657e-08, global = 6.22543415804e-18, cumulative = 7.10111415959e-16
ExecutionTime = 5.64 s  ClockTime = 14 s

Courant Number mean: 0.0667427331653 max: 2.78691055634
Time = 1.3

Inner iteration:  0

DILUPBiCG:  Solving for thetaxx, Initial residual = 0.00270721387554, Final residual = 4.46084003494e-12, No Iterations 5
DILUPBiCG:  Solving for thetaxy, Initial residual = 0.00268363695325, Final residual = 2.09393012761e-11, No Iterations 5
DILUPBiCG:  Solving for thetayy, Initial residual = 0.00496662484419, Final residual = 3.84343514619e-11, No Iterations 5
DILUPBiCG:  Solving for thetazz, Initial residual = 0, Final residual = 0, No Iterations 0
Coupled system: p, U
Petsc:preonly:lu: Solving coupled for p, Initial residual = 7.83557118942e-08, Final residual = 1.17412110275e-16, No Iterations 1
Petsc:preonly:lu: Solving coupled for Ux, Initial residual = 0.000144652930427, Final residual = 4.69451748738e-15, No Iterations 1
Petsc:preonly:lu: Solving coupled for Uy, Initial residual = 0.000857817268601, Final residual = 6.85515654692e-14, No Iterations 1
time step continuity errors : sum local = 3.41513106574e-08, global = 6.15257713083e-18, cumulative = 7.1626399309e-16
ExecutionTime = 5.7 s  ClockTime = 14 s

Courant Number mean: 0.0667402430793 max: 2.7862672832
Time = 1.32

Inner iteration:  0

DILUPBiCG:  Solving for thetaxx, Initial residual = 0.00266145091881, Final residual = 4.18128753118e-12, No Iterations 5
DILUPBiCG:  Solving for thetaxy, Initial residual = 0.00256739524413, Final residual = 2.08354877e-11, No Iterations 5
DILUPBiCG:  Solving for thetayy, Initial residual = 0.00480968361439, Final residual = 2.92079331595e-11, No Iterations 5
DILUPBiCG:  Solving for thetazz, Initial residual = 0, Final residual = 0, No Iterations 0
Coupled system: p, U
Petsc:preonly:lu: Solving coupled for p, Initial residual = 7.7155230176e-08, Final residual = 1.17860897996e-16, No Iterations 1
Petsc:preonly:lu: Solving coupled for Ux, Initial residual = 0.000153372674991, Final residual = 4.62762882664e-15, No Iterations 1
Petsc:preonly:lu: Solving coupled for Uy, Initial residual = 0.000850034797569, Final residual = 6.97809671662e-14, No Iterations 1
time step continuity errors : sum local = 3.37906013831e-08, global = 6.30477877209e-18, cumulative = 7.22568771862e-16
ExecutionTime = 5.76 s  ClockTime = 14 s

Courant Number mean: 0.0667375046644 max: 2.78563011106
Time = 1.34

Inner iteration:  0

DILUPBiCG:  Solving for thetaxx, Initial residual = 0.00261615168674, Final residual = 4.01297105033e-12, No Iterations 5
DILUPBiCG:  Solving for thetaxy, Initial residual = 0.00245572340827, Final residual = 2.14576971299e-11, No Iterations 5
DILUPBiCG:  Solving for thetayy, Initial residual = 0.00465228865657, Final residual = 2.43419382556e-11, No Iterations 5
DILUPBiCG:  Solving for thetazz, Initial residual = 0, Final residual = 0, No Iterations 0
Coupled system: p, U
Petsc:preonly:lu: Solving coupled for p, Initial residual = 7.56467228403e-08, Final residual = 1.18461843428e-16, No Iterations 1
Petsc:preonly:lu: Solving coupled for Ux, Initial residual = 0.00016154580428, Final residual = 4.57732354048e-15, No Iterations 1
Petsc:preonly:lu: Solving coupled for Uy, Initial residual = 0.000842669267247, Final residual = 7.05492070014e-14, No Iterations 1
time step continuity errors : sum local = 3.33465251033e-08, global = 6.13608271796e-18, cumulative = 7.2870485458e-16
ExecutionTime = 5.83 s  ClockTime = 14 s

Courant Number mean: 0.0667345428592 max: 2.7849993515
Time = 1.36

Inner iteration:  0

DILUPBiCG:  Solving for thetaxx, Initial residual = 0.00257132665752, Final residual = 3.88781335165e-12, No Iterations 5
DILUPBiCG:  Solving for thetaxy, Initial residual = 0.00234846985814, Final residual = 2.27528060784e-11, No Iterations 5
DILUPBiCG:  Solving for thetayy, Initial residual = 0.00449425808592, Final residual = 2.69332843509e-11, No Iterations 5
DILUPBiCG:  Solving for thetazz, Initial residual = 0, Final residual = 0, No Iterations 0
Coupled system: p, U
Petsc:preonly:lu: Solving coupled for p, Initial residual = 7.43223815125e-08, Final residual = 1.17562038745e-16, No Iterations 1
Petsc:preonly:lu: Solving coupled for Ux, Initial residual = 0.000169081162301, Final residual = 4.69093245324e-15, No Iterations 1
Petsc:preonly:lu: Solving coupled for Uy, Initial residual = 0.000835145312801, Final residual = 6.99505170524e-14, No Iterations 1
time step continuity errors : sum local = 3.29428578924e-08, global = 6.18447956131e-18, cumulative = 7.34889334141e-16
ExecutionTime = 5.89 s  ClockTime = 14 s

Courant Number mean: 0.0667313837773 max: 2.78437532881
Time = 1.38

Inner iteration:  0

DILUPBiCG:  Solving for thetaxx, Initial residual = 0.0025269825196, Final residual = 3.78188104418e-12, No Iterations 5
DILUPBiCG:  Solving for thetaxy, Initial residual = 0.0022454199109, Final residual = 2.4512057438e-11, No Iterations 5
DILUPBiCG:  Solving for thetayy, Initial residual = 0.00433624236966, Final residual = 2.93757474616e-11, No Iterations 5
DILUPBiCG:  Solving for thetazz, Initial residual = 0, Final residual = 0, No Iterations 0
Coupled system: p, U
Petsc:preonly:lu: Solving coupled for p, Initial residual = 7.3138966879e-08, Final residual = 1.18411408288e-16, No Iterations 1
Petsc:preonly:lu: Solving coupled for Ux, Initial residual = 0.000175900581403, Final residual = 4.55528080428e-15, No Iterations 1
Petsc:preonly:lu: Solving coupled for Uy, Initial residual = 0.00082776960631, Final residual = 6.9199033466e-14, No Iterations 1
time step continuity errors : sum local = 3.25644647112e-08, global = 6.26042127142e-18, cumulative = 7.41149755413e-16
ExecutionTime = 5.96 s  ClockTime = 14 s

Courant Number mean: 0.0667280531718 max: 2.78375838147
Time = 1.4

Inner iteration:  0

[...]
DILUPBiCG:  Solving for thetazz, Initial residual = 0, Final residual = 0, No Iterations 0
Coupled system: p, U
Petsc:preonly:lu: Solving coupled for p, Initial residual = 2.02951912925e-09, Final residual = 1.15927197529e-16, No Iterations 1
Petsc:preonly:lu: Solving coupled for Ux, Initial residual = 1.4923654508e-06, Final residual = 4.64559978999e-15, No Iterations 1
Petsc:preonly:lu: Solving coupled for Uy, Initial residual = 2.87716646658e-05, Final residual = 7.44942270094e-14, No Iterations 1
time step continuity errors : sum local = 4.68861837753e-10, global = 6.71044563125e-18, cumulative = 1.96927317987e-15
ExecutionTime = 20.14 s  ClockTime = 29 s

Courant Number mean: 0.0665369251756 max: 2.76167946075
Time = 5.14

Inner iteration:  0

DILUPBiCG:  Solving for thetaxx, Initial residual = 4.3363902582e-05, Final residual = 2.16349663388e-12, No Iterations 4
DILUPBiCG:  Solving for thetaxy, Initial residual = 1.69211647272e-05, Final residual = 9.05423796913e-13, No Iterations 4
DILUPBiCG:  Solving for thetayy, Initial residual = 1.55273238963e-05, Final residual = 3.19538504779e-11, No Iterations 3
DILUPBiCG:  Solving for thetazz, Initial residual = 0, Final residual = 0, No Iterations 0
Coupled system: p, U
Petsc:preonly:lu: Solving coupled for p, Initial residual = 1.99035268084e-09, Final residual = 1.14781070095e-16, No Iterations 1
Petsc:preonly:lu: Solving coupled for Ux, Initial residual = 1.46526220019e-06, Final residual = 4.7014023459e-15, No Iterations 1
Petsc:preonly:lu: Solving coupled for Uy, Initial residual = 2.83433280847e-05, Final residual = 7.51498859845e-14, No Iterations 1
time step continuity errors : sum local = 4.5872278741e-10, global = 6.6452578263e-18, cumulative = 1.9759184377e-15
ExecutionTime = 20.21 s  ClockTime = 29 s

Courant Number mean: 0.066536882799 max: 2.76167386886
Time = 5.16

Inner iteration:  0

DILUPBiCG:  Solving for thetaxx, Initial residual = 4.24134662617e-05, Final residual = 2.10067441701e-12, No Iterations 4
DILUPBiCG:  Solving for thetaxy, Initial residual = 1.6554637873e-05, Final residual = 8.8698969847e-13, No Iterations 4
DILUPBiCG:  Solving for thetayy, Initial residual = 1.51952337051e-05, Final residual = 3.17102291326e-11, No Iterations 3
DILUPBiCG:  Solving for thetazz, Initial residual = 0, Final residual = 0, No Iterations 0
Coupled system: p, U
Petsc:preonly:lu: Solving coupled for p, Initial residual = 1.95299757299e-09, Final residual = 1.15144011844e-16, No Iterations 1
Petsc:preonly:lu: Solving coupled for Ux, Initial residual = 1.43810901425e-06, Final residual = 4.67995012802e-15, No Iterations 1
Petsc:preonly:lu: Solving coupled for Uy, Initial residual = 2.79291334483e-05, Final residual = 7.6058044402e-14, No Iterations 1
time step continuity errors : sum local = 4.48947441927e-10, global = 6.75833706963e-18, cumulative = 1.98267677477e-15
ExecutionTime = 20.29 s  ClockTime = 29 s

Courant Number mean: 0.0665368424792 max: 2.7616683566
Time = 5.18

Inner iteration:  0

DILUPBiCG:  Solving for thetaxx, Initial residual = 4.14852363101e-05, Final residual = 2.0400980124e-12, No Iterations 4
DILUPBiCG:  Solving for thetaxy, Initial residual = 1.61953001197e-05, Final residual = 8.64317405534e-13, No Iterations 4
DILUPBiCG:  Solving for thetayy, Initial residual = 1.48712346296e-05, Final residual = 3.15478517364e-11, No Iterations 3
DILUPBiCG:  Solving for thetazz, Initial residual = 0, Final residual = 0, No Iterations 0
Coupled system: p, U
Petsc:preonly:lu: Solving coupled for p, Initial residual = 1.91673873043e-09, Final residual = 1.15274166273e-16, No Iterations 1
Petsc:preonly:lu: Solving coupled for Ux, Initial residual = 1.41231698877e-06, Final residual = 4.65073955327e-15, No Iterations 1
Petsc:preonly:lu: Solving coupled for Uy, Initial residual = 2.74932875393e-05, Final residual = 7.57937886516e-14, No Iterations 1
time step continuity errors : sum local = 4.39508678326e-10, global = 6.67997908121e-18, cumulative = 1.98935675385e-15
ExecutionTime = 20.37 s  ClockTime = 29 s

Courant Number mean: 0.0665368041791 max: 2.76166294336
Time = 5.2

Inner iteration:  0

DILUPBiCG:  Solving for thetaxx, Initial residual = 4.05751757476e-05, Final residual = 1.98133134178e-12, No Iterations 4
DILUPBiCG:  Solving for thetaxy, Initial residual = 1.58437195703e-05, Final residual = 8.36279531294e-13, No Iterations 4
DILUPBiCG:  Solving for thetayy, Initial residual = 1.45552549344e-05, Final residual = 3.14718594995e-11, No Iterations 3
DILUPBiCG:  Solving for thetazz, Initial residual = 0, Final residual = 0, No Iterations 0
Coupled system: p, U
Petsc:preonly:lu: Solving coupled for p, Initial residual = 1.88049201235e-09, Final residual = 1.14520082852e-16, No Iterations 1
Petsc:preonly:lu: Solving coupled for Ux, Initial residual = 1.38861249032e-06, Final residual = 4.67090673725e-15, No Iterations 1
Petsc:preonly:lu: Solving coupled for Uy, Initial residual = 2.70378009521e-05, Final residual = 7.38358742373e-14, No Iterations 1
time step continuity errors : sum local = 4.30071163324e-10, global = 6.7210325679e-18, cumulative = 1.99607778642e-15
ExecutionTime = 20.44 s  ClockTime = 29 s

Courant Number mean: 0.0665367678613 max: 2.76165764931
Time = 5.22

Inner iteration:  0

DILUPBiCG:  Solving for thetaxx, Initial residual = 3.96858653947e-05, Final residual = 1.92381769988e-12, No Iterations 4
DILUPBiCG:  Solving for thetaxy, Initial residual = 1.54997279033e-05, Final residual = 8.01823811977e-13, No Iterations 4
DILUPBiCG:  Solving for thetayy, Initial residual = 1.42481715635e-05, Final residual = 3.14814179617e-11, No Iterations 3
DILUPBiCG:  Solving for thetazz, Initial residual = 0, Final residual = 0, No Iterations 0
Coupled system: p, U
Petsc:preonly:lu: Solving coupled for p, Initial residual = 1.84458955772e-09, Final residual = 1.16544329632e-16, No Iterations 1
Petsc:preonly:lu: Solving coupled for Ux, Initial residual = 1.36655272472e-06, Final residual = 4.74963276978e-15, No Iterations 1
Petsc:preonly:lu: Solving coupled for Uy, Initial residual = 2.66106767671e-05, Final residual = 7.50319577497e-14, No Iterations 1
time step continuity errors : sum local = 4.20544866795e-10, global = 6.59073194854e-18, cumulative = 2.00266851837e-15
ExecutionTime = 20.51 s  ClockTime = 29 s

Courant Number mean: 0.066536733485 max: 2.76165249311
Time = 5.24

Inner iteration:  0

DILUPBiCG:  Solving for thetaxx, Initial residual = 3.88149787056e-05, Final residual = 1.86767896679e-12, No Iterations 4
DILUPBiCG:  Solving for thetaxy, Initial residual = 1.51627782102e-05, Final residual = 7.62352639625e-13, No Iterations 4
DILUPBiCG:  Solving for thetayy, Initial residual = 1.39478900955e-05, Final residual = 3.15624957956e-11, No Iterations 3
DILUPBiCG:  Solving for thetazz, Initial residual = 0, Final residual = 0, No Iterations 0
Coupled system: p, U
Petsc:preonly:lu: Solving coupled for p, Initial residual = 1.81027928542e-09, Final residual = 1.15584379615e-16, No Iterations 1
Petsc:preonly:lu: Solving coupled for Ux, Initial residual = 1.3438858457e-06, Final residual = 4.72581321009e-15, No Iterations 1
Petsc:preonly:lu: Solving coupled for Uy, Initial residual = 2.61868535381e-05, Final residual = 7.56287423718e-14, No Iterations 1
time step continuity errors : sum local = 4.11088710808e-10, global = 6.65385928838e-18, cumulative = 2.00932237765e-15
ExecutionTime = 20.58 s  ClockTime = 29 s

Courant Number mean: 0.066536701017 max: 2.76164749086
Time = 5.26

Inner iteration:  0

DILUPBiCG:  Solving for thetaxx, Initial residual = 3.79616768417e-05, Final residual = 1.81333265927e-12, No Iterations 4
DILUPBiCG:  Solving for thetaxy, Initial residual = 1.48340775839e-05, Final residual = 7.21742412304e-13, No Iterations 4
DILUPBiCG:  Solving for thetayy, Initial residual = 1.36534528753e-05, Final residual = 3.16901565365e-11, No Iterations 3
DILUPBiCG:  Solving for thetazz, Initial residual = 0, Final residual = 0, No Iterations 0
Coupled system: p, U
Petsc:preonly:lu: Solving coupled for p, Initial residual = 1.77680057734e-09, Final residual = 1.14311475586e-16, No Iterations 1
Petsc:preonly:lu: Solving coupled for Ux, Initial residual = 1.32124681681e-06, Final residual = 4.67002882621e-15, No Iterations 1
Petsc:preonly:lu: Solving coupled for Uy, Initial residual = 2.57552362046e-05, Final residual = 7.4061451694e-14, No Iterations 1
time step continuity errors : sum local = 4.01983310751e-10, global = 6.71946570633e-18, cumulative = 2.01604184336e-15
ExecutionTime = 20.64 s  ClockTime = 29 s

Courant Number mean: 0.0665366704225 max: 2.76164265447
Time = 5.28

Inner iteration:  0

DILUPBiCG:  Solving for thetaxx, Initial residual = 3.71291727419e-05, Final residual = 1.76074352694e-12, No Iterations 4
DILUPBiCG:  Solving for thetaxy, Initial residual = 1.45119231143e-05, Final residual = 7.01750356664e-13, No Iterations 4
DILUPBiCG:  Solving for thetayy, Initial residual = 1.33648712939e-05, Final residual = 3.1838044794e-11, No Iterations 3
DILUPBiCG:  Solving for thetazz, Initial residual = 0, Final residual = 0, No Iterations 0
Coupled system: p, U
Petsc:preonly:lu: Solving coupled for p, Initial residual = 1.74243756365e-09, Final residual = 1.15877509695e-16, No Iterations 1
Petsc:preonly:lu: Solving coupled for Ux, Initial residual = 1.29895233467e-06, Final residual = 4.71317650958e-15, No Iterations 1
Petsc:preonly:lu: Solving coupled for Uy, Initial residual = 2.53304517198e-05, Final residual = 7.55255045042e-14, No Iterations 1
time step continuity errors : sum local = 3.93210859351e-10, global = 6.66197044834e-18, cumulative = 2.02270381381e-15
ExecutionTime = 20.7 s  ClockTime = 29 s

Courant Number mean: 0.0665366416386 max: 2.76163799081
Time = 5.3

Inner iteration:  0

DILUPBiCG:  Solving for thetaxx, Initial residual = 3.63166670938e-05, Final residual = 1.70994152564e-12, No Iterations 4
DILUPBiCG:  Solving for thetaxy, Initial residual = 1.41971275431e-05, Final residual = 7.10147782127e-13, No Iterations 4
DILUPBiCG:  Solving for thetayy, Initial residual = 1.30805166514e-05, Final residual = 3.19840247943e-11, No Iterations 3
DILUPBiCG:  Solving for thetazz, Initial residual = 0, Final residual = 0, No Iterations 0
Coupled system: p, U
Petsc:preonly:lu: Solving coupled for p, Initial residual = 1.70703214248e-09, Final residual = 1.16901935438e-16, No Iterations 1
Petsc:preonly:lu: Solving coupled for Ux, Initial residual = 1.27654056936e-06, Final residual = 4.62918338824e-15, No Iterations 1
Petsc:preonly:lu: Solving coupled for Uy, Initial residual = 2.48897113585e-05, Final residual = 7.46545264266e-14, No Iterations 1
time step continuity errors : sum local = 3.84561777006e-10, global = 6.5611071623e-18, cumulative = 2.02926492097e-15
ExecutionTime = 20.77 s  ClockTime = 29 s

Courant Number mean: 0.0665366146204 max: 2.76163350287
Time = 5.32

Inner iteration:  0

DILUPBiCG:  Solving for thetaxx, Initial residual = 3.55234406645e-05, Final residual = 1.66087019585e-12, No Iterations 4
DILUPBiCG:  Solving for thetaxy, Initial residual = 1.38882409476e-05, Final residual = 7.10301103711e-13, No Iterations 4
DILUPBiCG:  Solving for thetayy, Initial residual = 1.2801891833e-05, Final residual = 3.21021777452e-11, No Iterations 3
DILUPBiCG:  Solving for thetazz, Initial residual = 0, Final residual = 0, No Iterations 0
Coupled system: p, U
Petsc:preonly:lu: Solving coupled for p, Initial residual = 1.67269199849e-09, Final residual = 1.14224274833e-16, No Iterations 1
Petsc:preonly:lu: Solving coupled for Ux, Initial residual = 1.25588765763e-06, Final residual = 4.68277680663e-15, No Iterations 1
Petsc:preonly:lu: Solving coupled for Uy, Initial residual = 2.44676565692e-05, Final residual = 7.49833057428e-14, No Iterations 1
time step continuity errors : sum local = 3.7602146708e-10, global = 6.69450302379e-18, cumulative = 2.03595942399e-15
ExecutionTime = 20.83 s  ClockTime = 29 s

Courant Number mean: 0.0665365893229 max: 2.76162919098
Time = 5.34

Inner iteration:  0

DILUPBiCG:  Solving for thetaxx, Initial residual = 3.4746229732e-05, Final residual = 1.61364561286e-12, No Iterations 4
DILUPBiCG:  Solving for thetaxy, Initial residual = 1.35854408059e-05, Final residual = 6.99065129171e-13, No Iterations 4
DILUPBiCG:  Solving for thetayy, Initial residual = 1.25276470736e-05, Final residual = 3.21634860306e-11, No Iterations 3
DILUPBiCG:  Solving for thetazz, Initial residual = 0, Final residual = 0, No Iterations 0
Coupled system: p, U
Petsc:preonly:lu: Solving coupled for p, Initial residual = 1.63911123866e-09, Final residual = 1.16718822932e-16, No Iterations 1
Petsc:preonly:lu: Solving coupled for Ux, Initial residual = 1.23631120661e-06, Final residual = 4.72816976151e-15, No Iterations 1
Petsc:preonly:lu: Solving coupled for Uy, Initial residual = 2.40414100075e-05, Final residual = 7.48196586434e-14, No Iterations 1
time step continuity errors : sum local = 3.67579326953e-10, global = 6.69588058123e-18, cumulative = 2.04265530458e-15
ExecutionTime = 20.9 s  ClockTime = 29 s

Courant Number mean: 0.0665365656986 max: 2.76162505381
Time = 5.36

Inner iteration:  0

DILUPBiCG:  Solving for thetaxx, Initial residual = 3.3983766299e-05, Final residual = 1.56818460167e-12, No Iterations 4
DILUPBiCG:  Solving for thetaxy, Initial residual = 1.32897013983e-05, Final residual = 6.74205154314e-13, No Iterations 4
DILUPBiCG:  Solving for thetayy, Initial residual = 1.22576159082e-05, Final residual = 3.21484131364e-11, No Iterations 3
DILUPBiCG:  Solving for thetazz, Initial residual = 0, Final residual = 0, No Iterations 0
Coupled system: p, U
Petsc:preonly:lu: Solving coupled for p, Initial residual = 1.60668978131e-09, Final residual = 1.16309641058e-16, No Iterations 1
Petsc:preonly:lu: Solving coupled for Ux, Initial residual = 1.21729170577e-06, Final residual = 4.69267509452e-15, No Iterations 1
Petsc:preonly:lu: Solving coupled for Uy, Initial residual = 2.3612423677e-05, Final residual = 7.47875816204e-14, No Iterations 1
time step continuity errors : sum local = 3.59343473361e-10, global = 6.62852760113e-18, cumulative = 2.04928383218e-15
ExecutionTime = 20.97 s  ClockTime = 30 s

Courant Number mean: 0.0665365436987 max: 2.76162108961
Time = 5.38

Inner iteration:  0

DILUPBiCG:  Solving for thetaxx, Initial residual = 3.32393723816e-05, Final residual = 1.5245884248e-12, No Iterations 4
DILUPBiCG:  Solving for thetaxy, Initial residual = 1.3001992832e-05, Final residual = 6.34122760067e-13, No Iterations 4
DILUPBiCG:  Solving for thetayy, Initial residual = 1.19922774853e-05, Final residual = 3.20517934054e-11, No Iterations 3
DILUPBiCG:  Solving for thetazz, Initial residual = 0, Final residual = 0, No Iterations 0
Coupled system: p, U
Petsc:preonly:lu: Solving coupled for p, Initial residual = 1.57484881848e-09, Final residual = 1.14680403369e-16, No Iterations 1
Petsc:preonly:lu: Solving coupled for Ux, Initial residual = 1.19669829823e-06, Final residual = 4.65437542605e-15, No Iterations 1
Petsc:preonly:lu: Solving coupled for Uy, Initial residual = 2.31774141054e-05, Final residual = 7.46450971028e-14, No Iterations 1
time step continuity errors : sum local = 3.51241745071e-10, global = 6.6134856953e-18, cumulative = 2.05589731787e-15
ExecutionTime = 21.04 s  ClockTime = 30 s

Courant Number mean: 0.0665365232697 max: 2.76161729809
Time = 5.4

Inner iteration:  0

DILUPBiCG:  Solving for thetaxx, Initial residual = 3.25137057517e-05, Final residual = 1.48253320468e-12, No Iterations 4
DILUPBiCG:  Solving for thetaxy, Initial residual = 1.27202522739e-05, Final residual = 5.95990370266e-13, No Iterations 4
DILUPBiCG:  Solving for thetayy, Initial residual = 1.17339090777e-05, Final residual = 3.1885414569e-11, No Iterations 3
DILUPBiCG:  Solving for thetazz, Initial residual = 0, Final residual = 0, No Iterations 0
Coupled system: p, U
Petsc:preonly:lu: Solving coupled for p, Initial residual = 1.54248871142e-09, Final residual = 1.16232808364e-16, No Iterations 1
Petsc:preonly:lu: Solving coupled for Ux, Initial residual = 1.17804222373e-06, Final residual = 4.71569259291e-15, No Iterations 1
Petsc:preonly:lu: Solving coupled for Uy, Initial residual = 2.27588254697e-05, Final residual = 7.54619431127e-14, No Iterations 1
time step continuity errors : sum local = 3.43437006459e-10, global = 6.65860180256e-18, cumulative = 2.06255591968e-15
ExecutionTime = 21.11 s  ClockTime = 30 s

Courant Number mean: 0.0665365043531 max: 2.76161367974
Time = 5.42

Inner iteration:  0

DILUPBiCG:  Solving for thetaxx, Initial residual = 3.18001326952e-05, Final residual = 1.44199447624e-12, No Iterations 4
DILUPBiCG:  Solving for thetaxy, Initial residual = 1.24441219886e-05, Final residual = 6.26345611095e-13, No Iterations 4
DILUPBiCG:  Solving for thetayy, Initial residual = 1.14811323527e-05, Final residual = 3.16549150995e-11, No Iterations 3
DILUPBiCG:  Solving for thetazz, Initial residual = 0, Final residual = 0, No Iterations 0
Coupled system: p, U
Petsc:preonly:lu: Solving coupled for p, Initial residual = 1.51142918466e-09, Final residual = 1.15022587855e-16, No Iterations 1
Petsc:preonly:lu: Solving coupled for Ux, Initial residual = 1.15819608274e-06, Final residual = 4.655916456e-15, No Iterations 1
Petsc:preonly:lu: Solving coupled for Uy, Initial residual = 2.23614522972e-05, Final residual = 7.41057930734e-14, No Iterations 1
time step continuity errors : sum local = 3.35676305712e-10, global = 6.63463948601e-18, cumulative = 2.06919055916e-15
ExecutionTime = 21.18 s  ClockTime = 30 s

Courant Number mean: 0.0665364868884 max: 2.76161023426
Time = 5.44

Inner iteration:  0

DILUPBiCG:  Solving for thetaxx, Initial residual = 3.11028699169e-05, Final residual = 1.40272656638e-12, No Iterations 4
DILUPBiCG:  Solving for thetaxy, Initial residual = 1.21737039222e-05, Final residual = 6.82380414069e-13, No Iterations 4
DILUPBiCG:  Solving for thetayy, Initial residual = 1.12338467134e-05, Final residual = 3.13719010853e-11, No Iterations 3
DILUPBiCG:  Solving for thetazz, Initial residual = 0, Final residual = 0, No Iterations 0
Coupled system: p, U
Petsc:preonly:lu: Solving coupled for p, Initial residual = 1.48158592134e-09, Final residual = 1.15514835253e-16, No Iterations 1
Petsc:preonly:lu: Solving coupled for Ux, Initial residual = 1.13890933927e-06, Final residual = 4.64616207852e-15, No Iterations 1
Petsc:preonly:lu: Solving coupled for Uy, Initial residual = 2.1956632694e-05, Final residual = 7.54498965833e-14, No Iterations 1
time step continuity errors : sum local = 3.28223382118e-10, global = 6.63249699981e-18, cumulative = 2.07582305616e-15
ExecutionTime = 21.25 s  ClockTime = 30 s

Courant Number mean: 0.0665364708134 max: 2.76160696082
Time = 5.46

Inner iteration:  0

DILUPBiCG:  Solving for thetaxx, Initial residual = 3.04220124006e-05, Final residual = 1.36466173447e-12, No Iterations 4
DILUPBiCG:  Solving for thetaxy, Initial residual = 1.19091234892e-05, Final residual = 7.5817675558e-13, No Iterations 4
DILUPBiCG:  Solving for thetayy, Initial residual = 1.09928424098e-05, Final residual = 3.10364444409e-11, No Iterations 3
DILUPBiCG:  Solving for thetazz, Initial residual = 0, Final residual = 0, No Iterations 0
Coupled system: p, U
Petsc:preonly:lu: Solving coupled for p, Initial residual = 1.45411706928e-09, Final residual = 1.16998819122e-16, No Iterations 1
Petsc:preonly:lu: Solving coupled for Ux, Initial residual = 1.11980745584e-06, Final residual = 4.66773539322e-15, No Iterations 1
Petsc:preonly:lu: Solving coupled for Uy, Initial residual = 2.15422456284e-05, Final residual = 7.47231358202e-14, No Iterations 1
time step continuity errors : sum local = 3.20962145269e-10, global = 6.67923019178e-18, cumulative = 2.08250228635e-15
ExecutionTime = 21.32 s  ClockTime = 30 s

Courant Number mean: 0.066536456066 max: 2.76160385687
Time = 5.48

Inner iteration:  0

