/*---------------------------------------------------------------------------*\
  =========                 |
  \\      /  F ield         | OpenFOAM: The Open Source CFD Toolbox
   \\    /   O peration     | Website:  https://openfoam.org
    \\  /    A nd           | Version:  9
     \\/     M anipulation  |
\*---------------------------------------------------------------------------*/
Build  : 9-c96968adf6d8
Exec   : rheoFoam
Date   : Sep 23 2022
Time   : 11:11:31
Host   : "clove-ZenBook-UX535LI-UX535LI"
PID    : 29406
I/O    : uncollated
Case   : /home/clove/rheoTool/of90/custom_models/flow_past_sphere/Oldroyd-BLog
nProcs : 1
sigFpe : Enabling floating point exception trapping (FOAM_SIGFPE).
fileModificationChecking : Monitoring run-time modified files using timeStampMaster (fileModificationSkew 10)
allowSystemOperations : Allowing user-supplied system call operations

// * * * * * * * * * * * * * * * * * * * * * * * * * * * * * * * * * * * * * //
Create time

Create mesh for time = 0

--> FOAM Warning : 
    From function virtual void Foam::wedgePolyPatch::calcGeometry(Foam::PstreamBuffers&)
    in file meshes/polyMesh/polyPatches/constraint/wedge/wedgePolyPatch.C at line 70
    Wedge patch 'front' is not planar.
At local face at (-0.0009989542687 0.0001102212727 4.684404123e-06) the normal (-4.738705644e-08 -0.04246166871 0.9990980966) differs from the average normal (-6.196776694e-10 -0.04246166886 0.9990980966) by 2.187211507e-15
Either correct the patch or split it into planar parts
--> FOAM Warning : 
    From function virtual void Foam::wedgePolyPatch::calcGeometry(Foam::PstreamBuffers&)
    in file meshes/polyMesh/polyPatches/constraint/wedge/wedgePolyPatch.C at line 70
    Wedge patch 'front' is not planar.
At local face at (-0.0009956354934 0.0001444359266 6.138527e-06) the normal (-2.880255318e-08 -0.04246166826 0.9990980966) differs from the average normal (-6.196776694e-10 -0.04246166886 0.9990980966) by 7.946306782e-16
Either correct the patch or split it into planar parts
--> FOAM Warning : 
    From function virtual void Foam::wedgePolyPatch::calcGeometry(Foam::PstreamBuffers&)
    in file meshes/polyMesh/polyPatches/constraint/wedge/wedgePolyPatch.C at line 70
    Wedge patch 'front' is not planar.
At local face at (-0.0009887474528 0.000193790282 8.236087204e-06) the normal (-1.907860811e-08 -0.04246166799 0.9990980967) differs from the average normal (-6.196776694e-10 -0.04246166886 0.9990980966) by 3.415003425e-16
Either correct the patch or split it into planar parts
--> FOAM Warning : 
    From function virtual void Foam::wedgePolyPatch::calcGeometry(Foam::PstreamBuffers&)
    in file meshes/polyMesh/polyPatches/constraint/wedge/wedgePolyPatch.C at line 70
    Wedge patch 'front' is not planar.
At local face at (-0.0009978484318 0.0002482369896 1.055007209e-05) the normal (-1.741008112e-08 -0.04246166894 0.9990980966) differs from the average normal (-6.196776694e-10 -0.04246166886 0.9990980966) by 2.819234558e-16
Either correct the patch or split it into planar parts
--> FOAM Warning : 
    From function virtual void Foam::wedgePolyPatch::calcGeometry(Foam::PstreamBuffers&)
    in file meshes/polyMesh/polyPatches/constraint/wedge/wedgePolyPatch.C at line 70
    Wedge patch 'back' is not planar.
At local face at (-0.0009989542687 0.0001102212727 -4.684404123e-06) the normal (-4.738705668e-08 -0.04246166871 -0.9990980966) differs from the average normal (-6.196776698e-10 -0.04246166886 -0.9990980966) by 2.18721153e-15
Either correct the patch or split it into planar parts
--> FOAM Warning : 
    From function virtual void Foam::wedgePolyPatch::calcGeometry(Foam::PstreamBuffers&)
    in file meshes/polyMesh/polyPatches/constraint/wedge/wedgePolyPatch.C at line 70
    Wedge patch 'back' is not planar.
At local face at (-0.0009956354934 0.0001444359266 -6.138527e-06) the normal (-2.880255325e-08 -0.04246166826 -0.9990980966) differs from the average normal (-6.196776698e-10 -0.04246166886 -0.9990980966) by 7.94630682e-16
Either correct the patch or split it into planar parts
--> FOAM Warning : 
    From function virtual void Foam::wedgePolyPatch::calcGeometry(Foam::PstreamBuffers&)
    in file meshes/polyMesh/polyPatches/constraint/wedge/wedgePolyPatch.C at line 70
    Wedge patch 'back' is not planar.
At local face at (-0.0009887474528 0.000193790282 -8.236087204e-06) the normal (-1.907860818e-08 -0.04246166799 -0.9990980967) differs from the average normal (-6.196776698e-10 -0.04246166886 -0.9990980966) by 3.415003449e-16
Either correct the patch or split it into planar parts
--> FOAM Warning : 
    From function virtual void Foam::wedgePolyPatch::calcGeometry(Foam::PstreamBuffers&)
    in file meshes/polyMesh/polyPatches/constraint/wedge/wedgePolyPatch.C at line 70
    Wedge patch 'back' is not planar.
At local face at (-0.0009978484318 0.0002482369896 -1.055007209e-05) the normal (-1.74100811e-08 -0.04246166894 -0.9990980966) differs from the average normal (-6.196776698e-10 -0.04246166886 -0.9990980966) by 2.819234551e-16
Either correct the patch or split it into planar parts

SIMPLE: No convergence criteria found


SIMPLE: No convergence criteria found


SIMPLE: Operating solver in transient mode with 1 outer corrector
SIMPLE: Operating solver in PISO mode


Reading field p

Reading field U

Reading/calculating face flux field phi

Selecting constitutive equation Oldroyd-BLog
Selecting thermoFunction: Constant
Selecting thermoFunction: Constant
No MRF models present

No fvModels present
No fvConstraints present
Courant Number mean: 0.01033830593 max: 0.25

Starting time loop

Using dynamicCode for coded outputTest at line 58 in "/home/clove/rheoTool/of90/custom_models/flow_past_sphere/Oldroyd-BLog/system/controlDict/functions/outputTest"
Creating new library in "dynamicCode/outputTest/platforms/linux64GccDPInt32Opt/lib/liboutputTest_b23b327a38b7374a8a50ff2860d802c045e2b343.so"
"/opt/openfoam9/etc/codeTemplates/dynamicCode/codedFunctionObjectTemplate.C" "/home/clove/rheoTool/of90/custom_models/flow_past_sphere/Oldroyd-BLog/dynamicCode/outputTest/codedFunctionObjectTemplate.C"
"/opt/openfoam9/etc/codeTemplates/dynamicCode/codedFunctionObjectTemplate.H" "/home/clove/rheoTool/of90/custom_models/flow_past_sphere/Oldroyd-BLog/dynamicCode/outputTest/codedFunctionObjectTemplate.H"
Invoking "wmake -s libso /home/clove/rheoTool/of90/custom_models/flow_past_sphere/Oldroyd-BLog/dynamicCode/outputTest"
wmake libso /home/clove/rheoTool/of90/custom_models/flow_past_sphere/Oldroyd-BLog/dynamicCode/outputTest
    ln: ./lnInclude
    wmkdep: codedFunctionObjectTemplate.C
    Ctoo: codedFunctionObjectTemplate.C
    ld: /home/clove/rheoTool/of90/custom_models/flow_past_sphere/Oldroyd-BLog/dynamicCode/outputTest/../platforms/linux64GccDPInt32Opt/lib/liboutputTest_b23b327a38b7374a8a50ff2860d802c045e2b343.so
Courant Number mean: 0.01033830593 max: 0.25
Time = 0.02

Inner iteration:  0

DILUPBiCG:  Solving for thetaxx, Initial residual = 1, Final residual = 1.710621671e-17, No Iterations 1
DILUPBiCG:  Solving for thetaxy, Initial residual = 0, Final residual = 0, No Iterations 0
DILUPBiCG:  Solving for thetayy, Initial residual = 0, Final residual = 0, No Iterations 0
DILUPBiCG:  Solving for thetazz, Initial residual = 0, Final residual = 0, No Iterations 0
Coupled system: p, U
Petsc:preonly:lu: Solving coupled for p, Initial residual = 1, Final residual = 1, No Iterations 1
Petsc:preonly:lu: Solving coupled for Uz, Initial residual = 1, Final residual = 1, No Iterations 1
time step continuity errors : sum local = 0.02067661187, global = -0.02067661187, cumulative = -0.02067661187
ExecutionTime = 0.07 s  ClockTime = 4 s

Courant Number mean: 0.01033830593 max: 0.25
Time = 0.04

Inner iteration:  0

DILUPBiCG:  Solving for thetaxx, Initial residual = 0.2477490804, Final residual = 9.904118151e-19, No Iterations 1
DILUPBiCG:  Solving for thetaxy, Initial residual = 3.731787175e-43, Final residual = 3.731787175e-43, No Iterations 0
DILUPBiCG:  Solving for thetayy, Initial residual = 3.212113179e-42, Final residual = 3.212113179e-42, No Iterations 0
DILUPBiCG:  Solving for thetazz, Initial residual = 6.653764617e-39, Final residual = 6.653764617e-39, No Iterations 0
Coupled system: p, U
Petsc:preonly:lu: Solving coupled for p, Initial residual = 1, Final residual = 1, No Iterations 1
Petsc:preonly:lu: Solving coupled for Uz, Initial residual = 1, Final residual = 1, No Iterations 1
time step continuity errors : sum local = 0.02067661187, global = -0.02067661187, cumulative = -0.04135322373
ExecutionTime = 0.07 s  ClockTime = 4 s

Courant Number mean: 0.01033830593 max: 0.25
Time = 0.06

Inner iteration:  0

DILUPBiCG:  Solving for thetaxx, Initial residual = 0.1280993232, Final residual = 2.603736185e-17, No Iterations 1
DILUPBiCG:  Solving for thetaxy, Initial residual = 3.509331381e-37, Final residual = 3.509331381e-37, No Iterations 0
DILUPBiCG:  Solving for thetayy, Initial residual = 1.688428505e-36, Final residual = 1.688428505e-36, No Iterations 0
DILUPBiCG:  Solving for thetazz, Initial residual = 6.660398662e-33, Final residual = 6.660398662e-33, No Iterations 0
Coupled system: p, U
Petsc:preonly:lu: Solving coupled for p, Initial residual = 1, Final residual = 1, No Iterations 1
Petsc:preonly:lu: Solving coupled for Uz, Initial residual = 1, Final residual = 1, No Iterations 1
time step continuity errors : sum local = 0.02067661187, global = -0.02067661187, cumulative = -0.0620298356
ExecutionTime = 0.08 s  ClockTime = 4 s

Courant Number mean: 0.01033830593 max: 0.25
Time = 0.08

Inner iteration:  0

DILUPBiCG:  Solving for thetaxx, Initial residual = 0.06620092461, Final residual = 6.084187393e-18, No Iterations 1
DILUPBiCG:  Solving for thetaxy, Initial residual = 8.015508604e-37, Final residual = 8.015508604e-37, No Iterations 0
DILUPBiCG:  Solving for thetayy, Initial residual = 5.464305255e-36, Final residual = 5.464305255e-36, No Iterations 0
DILUPBiCG:  Solving for thetazz, Initial residual = 1.188268139e-32, Final residual = 1.188268139e-32, No Iterations 0
Coupled system: p, U
Petsc:preonly:lu: Solving coupled for p, Initial residual = 1, Final residual = 1, No Iterations 1
Petsc:preonly:lu: Solving coupled for Uz, Initial residual = 1, Final residual = 1, No Iterations 1
time step continuity errors : sum local = 0.02067661187, global = -0.02067661187, cumulative = -0.08270644747
ExecutionTime = 0.08 s  ClockTime = 4 s

Courant Number mean: 0.01033830593 max: 0.25
Time = 0.1

Inner iteration:  0

DILUPBiCG:  Solving for thetaxx, Initial residual = 0.02190922102, Final residual = 8.656302415e-19, No Iterations 1
DILUPBiCG:  Solving for thetaxy, Initial residual = 1.159199228e-36, Final residual = 1.159199228e-36, No Iterations 0
DILUPBiCG:  Solving for thetayy, Initial residual = 3.899092453e-36, Final residual = 3.899092453e-36, No Iterations 0
DILUPBiCG:  Solving for thetazz, Initial residual = 1.470028747e-32, Final residual = 1.470028747e-32, No Iterations 0
Coupled system: p, U
Petsc:preonly:lu: Solving coupled for p, Initial residual = 1, Final residual = 1, No Iterations 1
Petsc:preonly:lu: Solving coupled for Uz, Initial residual = 1, Final residual = 1, No Iterations 1
time step continuity errors : sum local = 0.02067661187, global = -0.02067661187, cumulative = -0.1033830593
ExecutionTime = 0.08 s  ClockTime = 4 s

Courant Number mean: 0.01033830593 max: 0.25
Time = 0.12

Inner iteration:  0

DILUPBiCG:  Solving for thetaxx, Initial residual = 0.001959252838, Final residual = 8.353914003e-20, No Iterations 1
DILUPBiCG:  Solving for thetaxy, Initial residual = 1.337388145e-36, Final residual = 1.337388145e-36, No Iterations 0
DILUPBiCG:  Solving for thetayy, Initial residual = 5.838184013e-36, Final residual = 5.838184013e-36, No Iterations 0
DILUPBiCG:  Solving for thetazz, Initial residual = 1.532936761e-32, Final residual = 1.532936761e-32, No Iterations 0
Coupled system: p, U
Petsc:preonly:lu: Solving coupled for p, Initial residual = 1, Final residual = 1, No Iterations 1
Petsc:preonly:lu: Solving coupled for Uz, Initial residual = 1, Final residual = 1, No Iterations 1
time step continuity errors : sum local = 0.02067661187, global = -0.02067661187, cumulative = -0.1240596712
ExecutionTime = 0.09 s  ClockTime = 4 s

Courant Number mean: 0.01033830593 max: 0.25
Time = 0.14

Inner iteration:  0

DILUPBiCG:  Solving for thetaxx, Initial residual = 3.635875363e-05, Final residual = 9.058916985e-21, No Iterations 1
DILUPBiCG:  Solving for thetaxy, Initial residual = 1.392784239e-36, Final residual = 1.392784239e-36, No Iterations 0
DILUPBiCG:  Solving for thetayy, Initial residual = 8.848132043e-36, Final residual = 8.848132043e-36, No Iterations 0
DILUPBiCG:  Solving for thetazz, Initial residual = 1.559139936e-32, Final residual = 1.559139936e-32, No Iterations 0
Coupled system: p, U
Petsc:preonly:lu: Solving coupled for p, Initial residual = 1, Final residual = 1, No Iterations 1
Petsc:preonly:lu: Solving coupled for Uz, Initial residual = 1, Final residual = 1, No Iterations 1
time step continuity errors : sum local = 0.02067661187, global = -0.02067661187, cumulative = -0.1447362831
ExecutionTime = 0.09 s  ClockTime = 4 s

Courant Number mean: 0.01033830593 max: 0.25
Time = 0.16

Inner iteration:  0

DILUPBiCG:  Solving for thetaxx, Initial residual = 1.045534428e-06, Final residual = 5.746297895e-23, No Iterations 1
DILUPBiCG:  Solving for thetaxy, Initial residual = 1.411692482e-36, Final residual = 1.411692482e-36, No Iterations 0
DILUPBiCG:  Solving for thetayy, Initial residual = 7.710067009e-36, Final residual = 7.710067009e-36, No Iterations 0
DILUPBiCG:  Solving for thetazz, Initial residual = 1.461770159e-32, Final residual = 1.461770159e-32, No Iterations 0
Coupled system: p, U
Petsc:preonly:lu: Solving coupled for p, Initial residual = 1, Final residual = 1, No Iterations 1
Petsc:preonly:lu: Solving coupled for Uz, Initial residual = 1, Final residual = 1, No Iterations 1
time step continuity errors : sum local = 0.02067661187, global = -0.02067661187, cumulative = -0.1654128949
ExecutionTime = 0.09 s  ClockTime = 4 s

Courant Number mean: 0.01033830593 max: 0.25
Time = 0.18

Inner iteration:  0

DILUPBiCG:  Solving for thetaxx, Initial residual = 2.986686055e-08, Final residual = 8.759583427e-25, No Iterations 1
DILUPBiCG:  Solving for thetaxy, Initial residual = 1.419026722e-36, Final residual = 1.419026722e-36, No Iterations 0
DILUPBiCG:  Solving for thetayy, Initial residual = 8.856595343e-36, Final residual = 8.856595343e-36, No Iterations 0
DILUPBiCG:  Solving for thetazz, Initial residual = 1.947395552e-32, Final residual = 1.947395552e-32, No Iterations 0
Coupled system: p, U
Petsc:preonly:lu: Solving coupled for p, Initial residual = 1, Final residual = 1, No Iterations 1
Petsc:preonly:lu: Solving coupled for Uz, Initial residual = 1, Final residual = 1, No Iterations 1
time step continuity errors : sum local = 0.02067661187, global = -0.02067661187, cumulative = -0.1860895068
ExecutionTime = 0.09 s  ClockTime = 4 s

Courant Number mean: 0.01033830593 max: 0.25
Time = 0.2

Inner iteration:  0

DILUPBiCG:  Solving for thetaxx, Initial residual = 8.533433876e-10, Final residual = 1.437119236e-25, No Iterations 1
DILUPBiCG:  Solving for thetaxy, Initial residual = 1.421875734e-36, Final residual = 1.421875734e-36, No Iterations 0
DILUPBiCG:  Solving for thetayy, Initial residual = 7.797687064e-36, Final residual = 7.797687064e-36, No Iterations 0
DILUPBiCG:  Solving for thetazz, Initial residual = 1.773047573e-32, Final residual = 1.773047573e-32, No Iterations 0
Coupled system: p, U
Petsc:preonly:lu: Solving coupled for p, Initial residual = 1, Final residual = 1, No Iterations 1
Petsc:preonly:lu: Solving coupled for Uz, Initial residual = 1, Final residual = 1, No Iterations 1
time step continuity errors : sum local = 0.02067661187, global = -0.02067661187, cumulative = -0.2067661187
ExecutionTime = 0.1 s  ClockTime = 4 s

Courant Number mean: 0.01033830593 max: 0.25
Time = 0.22

Inner iteration:  0

DILUPBiCG:  Solving for thetaxx, Initial residual = 2.438124385e-11, Final residual = 2.438124385e-11, No Iterations 0
DILUPBiCG:  Solving for thetaxy, Initial residual = 1.422990627e-36, Final residual = 1.422990627e-36, No Iterations 0
DILUPBiCG:  Solving for thetayy, Initial residual = 7.102700718e-36, Final residual = 7.102700718e-36, No Iterations 0
DILUPBiCG:  Solving for thetazz, Initial residual = 1.559139936e-32, Final residual = 1.559139936e-32, No Iterations 0
Coupled system: p, U
Petsc:preonly:lu: Solving coupled for p, Initial residual = 1, Final residual = 1, No Iterations 1
Petsc:preonly:lu: Solving coupled for Uz, Initial residual = 1, Final residual = 1, No Iterations 1
time step continuity errors : sum local = 0.02067661187, global = -0.02067661187, cumulative = -0.2274427305
ExecutionTime = 0.1 s  ClockTime = 4 s

Courant Number mean: 0.01033830593 max: 0.25
Time = 0.24

Inner iteration:  0

DILUPBiCG:  Solving for thetaxx, Initial residual = 2.438124385e-11, Final residual = 2.438124385e-11, No Iterations 0
DILUPBiCG:  Solving for thetaxy, Initial residual = 1.423428814e-36, Final residual = 1.423428814e-36, No Iterations 0
DILUPBiCG:  Solving for thetayy, Initial residual = 5.694805741e-36, Final residual = 5.694805741e-36, No Iterations 0
DILUPBiCG:  Solving for thetazz, Initial residual = 1.829124409e-32, Final residual = 1.829124409e-32, No Iterations 0
Coupled system: p, U
Petsc:preonly:lu: Solving coupled for p, Initial residual = 1, Final residual = 1, No Iterations 1
Petsc:preonly:lu: Solving coupled for Uz, Initial residual = 1, Final residual = 1, No Iterations 1
time step continuity errors : sum local = 0.02067661187, global = -0.02067661187, cumulative = -0.2481193424
ExecutionTime = 0.1 s  ClockTime = 4 s

Courant Number mean: 0.01033830593 max: 0.25
Time = 0.26

Inner iteration:  0

DILUPBiCG:  Solving for thetaxx, Initial residual = 2.438124385e-11, Final residual = 2.438124385e-11, No Iterations 0
DILUPBiCG:  Solving for thetaxy, Initial residual = 1.423600805e-36, Final residual = 1.423600805e-36, No Iterations 0
DILUPBiCG:  Solving for thetayy, Initial residual = 6.706419105e-36, Final residual = 6.706419105e-36, No Iterations 0
DILUPBiCG:  Solving for thetazz, Initial residual = 1.875719161e-32, Final residual = 1.875719161e-32, No Iterations 0
Coupled system: p, U
Petsc:preonly:lu: Solving coupled for p, Initial residual = 1, Final residual = 1, No Iterations 1
Petsc:preonly:lu: Solving coupled for Uz, Initial residual = 1, Final residual = 1, No Iterations 1
time step continuity errors : sum local = 0.02067661187, global = -0.02067661187, cumulative = -0.2687959543
ExecutionTime = 0.1 s  ClockTime = 4 s

Courant Number mean: 0.01033830593 max: 0.25
Time = 0.28

Inner iteration:  0

DILUPBiCG:  Solving for thetaxx, Initial residual = 2.438124385e-11, Final residual = 2.438124385e-11, No Iterations 0
DILUPBiCG:  Solving for thetaxy, Initial residual = 1.423668733e-36, Final residual = 1.423668733e-36, No Iterations 0
DILUPBiCG:  Solving for thetayy, Initial residual = 8.160613315e-36, Final residual = 8.160613315e-36, No Iterations 0
DILUPBiCG:  Solving for thetazz, Initial residual = 1.92149825e-32, Final residual = 1.92149825e-32, No Iterations 0
Coupled system: p, U
Petsc:preonly:lu: Solving coupled for p, Initial residual = 1, Final residual = 1, No Iterations 1
Petsc:preonly:lu: Solving coupled for Uz, Initial residual = 1, Final residual = 1, No Iterations 1
time step continuity errors : sum local = 0.02067661187, global = -0.02067661187, cumulative = -0.2894725661
ExecutionTime = 0.1 s  ClockTime = 4 s

Courant Number mean: 0.01033830593 max: 0.25
Time = 0.3

Inner iteration:  0

DILUPBiCG:  Solving for thetaxx, Initial residual = 2.438124385e-11, Final residual = 2.438124385e-11, No Iterations 0
DILUPBiCG:  Solving for thetaxy, Initial residual = 1.423696794e-36, Final residual = 1.423696794e-36, No Iterations 0
DILUPBiCG:  Solving for thetayy, Initial residual = 7.562706007e-36, Final residual = 7.562706007e-36, No Iterations 0
DILUPBiCG:  Solving for thetazz, Initial residual = 1.529062361e-32, Final residual = 1.529062361e-32, No Iterations 0
Coupled system: p, U
Petsc:preonly:lu: Solving coupled for p, Initial residual = 1, Final residual = 1, No Iterations 1
Petsc:preonly:lu: Solving coupled for Uz, Initial residual = 1, Final residual = 1, No Iterations 1
time step continuity errors : sum local = 0.02067661187, global = -0.02067661187, cumulative = -0.310149178
ExecutionTime = 0.11 s  ClockTime = 4 s

Courant Number mean: 0.01033830593 max: 0.25
Time = 0.32

Inner iteration:  0

DILUPBiCG:  Solving for thetaxx, Initial residual = 2.438124385e-11, Final residual = 2.438124385e-11, No Iterations 0
DILUPBiCG:  Solving for thetaxy, Initial residual = 1.423706639e-36, Final residual = 1.423706639e-36, No Iterations 0
DILUPBiCG:  Solving for thetayy, Initial residual = 8.458820207e-36, Final residual = 8.458820207e-36, No Iterations 0
DILUPBiCG:  Solving for thetazz, Initial residual = 1.866644909e-32, Final residual = 1.866644909e-32, No Iterations 0
Coupled system: p, U
Petsc:preonly:lu: Solving coupled for p, Initial residual = 1, Final residual = 1, No Iterations 1
Petsc:preonly:lu: Solving coupled for Uz, Initial residual = 1, Final residual = 1, No Iterations 1
time step continuity errors : sum local = 0.02067661187, global = -0.02067661187, cumulative = -0.3308257899
ExecutionTime = 0.11 s  ClockTime = 4 s

Courant Number mean: 0.01033830593 max: 0.25
Time = 0.34

Inner iteration:  0

DILUPBiCG:  Solving for thetaxx, Initial residual = 2.438124385e-11, Final residual = 2.438124385e-11, No Iterations 0
DILUPBiCG:  Solving for thetaxy, Initial residual = 1.423710619e-36, Final residual = 1.423710619e-36, No Iterations 0
DILUPBiCG:  Solving for thetayy, Initial residual = 6.515248075e-36, Final residual = 6.515248075e-36, No Iterations 0
DILUPBiCG:  Solving for thetazz, Initial residual = 1.802615359e-32, Final residual = 1.802615359e-32, No Iterations 0
Coupled system: p, U
Petsc:preonly:lu: Solving coupled for p, Initial residual = 1, Final residual = 1, No Iterations 1
Petsc:preonly:lu: Solving coupled for Uz, Initial residual = 1, Final residual = 1, No Iterations 1
time step continuity errors : sum local = 0.02067661187, global = -0.02067661187, cumulative = -0.3515024017
ExecutionTime = 0.11 s  ClockTime = 4 s

Courant Number mean: 0.01033830593 max: 0.25
Time = 0.36

Inner iteration:  0

DILUPBiCG:  Solving for thetaxx, Initial residual = 2.438124385e-11, Final residual = 2.438124385e-11, No Iterations 0
DILUPBiCG:  Solving for thetaxy, Initial residual = 1.423712306e-36, Final residual = 1.423712306e-36, No Iterations 0
DILUPBiCG:  Solving for thetayy, Initial residual = 6.263838258e-36, Final residual = 6.263838258e-36, No Iterations 0
DILUPBiCG:  Solving for thetazz, Initial residual = 1.521823351e-32, Final residual = 1.521823351e-32, No Iterations 0
Coupled system: p, U
Petsc:preonly:lu: Solving coupled for p, Initial residual = 1, Final residual = 1, No Iterations 1
Petsc:preonly:lu: Solving coupled for Uz, Initial residual = 1, Final residual = 1, No Iterations 1
time step continuity errors : sum local = 0.02067661187, global = -0.02067661187, cumulative = -0.3721790136
ExecutionTime = 0.11 s  ClockTime = 4 s

Courant Number mean: 0.01033830593 max: 0.25
Time = 0.38

Inner iteration:  0

DILUPBiCG:  Solving for thetaxx, Initial residual = 2.438124385e-11, Final residual = 2.438124385e-11, No Iterations 0
DILUPBiCG:  Solving for thetaxy, Initial residual = 1.423712876e-36, Final residual = 1.423712876e-36, No Iterations 0
DILUPBiCG:  Solving for thetayy, Initial residual = 4.706093074e-36, Final residual = 4.706093074e-36, No Iterations 0
DILUPBiCG:  Solving for thetazz, Initial residual = 1.694947836e-32, Final residual = 1.694947836e-32, No Iterations 0
Coupled system: p, U
Petsc:preonly:lu: Solving coupled for p, Initial residual = 1, Final residual = 1, No Iterations 1
Petsc:preonly:lu: Solving coupled for Uz, Initial residual = 1, Final residual = 1, No Iterations 1
time step continuity errors : sum local = 0.02067661187, global = -0.02067661187, cumulative = -0.3928556255
ExecutionTime = 0.12 s  ClockTime = 4 s

Courant Number mean: 0.01033830593 max: 0.25
Time = 0.4

Inner iteration:  0

DILUPBiCG:  Solving for thetaxx, Initial residual = 2.438124385e-11, Final residual = 2.438124385e-11, No Iterations 0
DILUPBiCG:  Solving for thetaxy, Initial residual = 1.423713339e-36, Final residual = 1.423713339e-36, No Iterations 0
DILUPBiCG:  Solving for thetayy, Initial residual = 9.737276466e-36, Final residual = 9.737276466e-36, No Iterations 0
DILUPBiCG:  Solving for thetazz, Initial residual = 1.99225702e-32, Final residual = 1.99225702e-32, No Iterations 0
Coupled system: p, U
Petsc:preonly:lu: Solving coupled for p, Initial residual = 1, Final residual = 1, No Iterations 1
Petsc:preonly:lu: Solving coupled for Uz, Initial residual = 1, Final residual = 1, No Iterations 1
time step continuity errors : sum local = 0.02067661187, global = -0.02067661187, cumulative = -0.4135322373
ExecutionTime = 0.12 s  ClockTime = 4 s

Courant Number mean: 0.01033830593 max: 0.25
Time = 0.42

Inner iteration:  0

DILUPBiCG:  Solving for thetaxx, Initial residual = 2.438124385e-11, Final residual = 2.438124385e-11, No Iterations 0
DILUPBiCG:  Solving for thetaxy, Initial residual = 1.42371343e-36, Final residual = 1.42371343e-36, No Iterations 0
DILUPBiCG:  Solving for thetayy, Initial residual = 4.63141689e-36, Final residual = 4.63141689e-36, No Iterations 0
DILUPBiCG:  Solving for thetazz, Initial residual = 1.693520425e-32, Final residual = 1.693520425e-32, No Iterations 0
Coupled system: p, U
Petsc:preonly:lu: Solving coupled for p, Initial residual = 1, Final residual = 1, No Iterations 1
Petsc:preonly:lu: Solving coupled for Uz, Initial residual = 1, Final residual = 1, No Iterations 1
time step continuity errors : sum local = 0.02067661187, global = -0.02067661187, cumulative = -0.4342088492
ExecutionTime = 0.12 s  ClockTime = 4 s

Courant Number mean: 0.01033830593 max: 0.25
Time = 0.44

Inner iteration:  0

DILUPBiCG:  Solving for thetaxx, Initial residual = 2.438124385e-11, Final residual = 2.438124385e-11, No Iterations 0
DILUPBiCG:  Solving for thetaxy, Initial residual = 1.423713491e-36, Final residual = 1.423713491e-36, No Iterations 0
DILUPBiCG:  Solving for thetayy, Initial residual = 5.483721063e-36, Final residual = 5.483721063e-36, No Iterations 0
DILUPBiCG:  Solving for thetazz, Initial residual = 1.633365275e-32, Final residual = 1.633365275e-32, No Iterations 0
Coupled system: p, U
Petsc:preonly:lu: Solving coupled for p, Initial residual = 1, Final residual = 1, No Iterations 1
Petsc:preonly:lu: Solving coupled for Uz, Initial residual = 1, Final residual = 1, No Iterations 1
time step continuity errors : sum local = 0.02067661187, global = -0.02067661187, cumulative = -0.4548854611
ExecutionTime = 0.12 s  ClockTime = 4 s

Courant Number mean: 0.01033830593 max: 0.25
Time = 0.46

Inner iteration:  0

DILUPBiCG:  Solving for thetaxx, Initial residual = 2.438124385e-11, Final residual = 2.438124385e-11, No Iterations 0
DILUPBiCG:  Solving for thetaxy, Initial residual = 1.42371321e-36, Final residual = 1.42371321e-36, No Iterations 0
DILUPBiCG:  Solving for thetayy, Initial residual = 6.596894036e-36, Final residual = 6.596894036e-36, No Iterations 0
DILUPBiCG:  Solving for thetazz, Initial residual = 1.80883479e-32, Final residual = 1.80883479e-32, No Iterations 0
Coupled system: p, U
Petsc:preonly:lu: Solving coupled for p, Initial residual = 1, Final residual = 1, No Iterations 1
Petsc:preonly:lu: Solving coupled for Uz, Initial residual = 1, Final residual = 1, No Iterations 1
time step continuity errors : sum local = 0.02067661187, global = -0.02067661187, cumulative = -0.4755620729
ExecutionTime = 0.13 s  ClockTime = 4 s

Courant Number mean: 0.01033830593 max: 0.25
Time = 0.48

Inner iteration:  0

DILUPBiCG:  Solving for thetaxx, Initial residual = 2.438124385e-11, Final residual = 2.438124385e-11, No Iterations 0
DILUPBiCG:  Solving for thetaxy, Initial residual = 1.423713233e-36, Final residual = 1.423713233e-36, No Iterations 0
DILUPBiCG:  Solving for thetayy, Initial residual = 8.1954622e-36, Final residual = 8.1954622e-36, No Iterations 0
DILUPBiCG:  Solving for thetazz, Initial residual = 1.809956327e-32, Final residual = 1.809956327e-32, No Iterations 0
Coupled system: p, U
Petsc:preonly:lu: Solving coupled for p, Initial residual = 1, Final residual = 1, No Iterations 1
Petsc:preonly:lu: Solving coupled for Uz, Initial residual = 1, Final residual = 1, No Iterations 1
time step continuity errors : sum local = 0.02067661187, global = -0.02067661187, cumulative = -0.4962386848
ExecutionTime = 0.13 s  ClockTime = 4 s

Courant Number mean: 0.01033830593 max: 0.25
Time = 0.5

Inner iteration:  0

DILUPBiCG:  Solving for thetaxx, Initial residual = 2.438124385e-11, Final residual = 2.438124385e-11, No Iterations 0
DILUPBiCG:  Solving for thetaxy, Initial residual = 1.423713377e-36, Final residual = 1.423713377e-36, No Iterations 0
DILUPBiCG:  Solving for thetayy, Initial residual = 9.329046663e-36, Final residual = 9.329046663e-36, No Iterations 0
DILUPBiCG:  Solving for thetazz, Initial residual = 2.02162089e-32, Final residual = 2.02162089e-32, No Iterations 0
Coupled system: p, U
Petsc:preonly:lu: Solving coupled for p, Initial residual = 1, Final residual = 1, No Iterations 1
Petsc:preonly:lu: Solving coupled for Uz, Initial residual = 1, Final residual = 1, No Iterations 1
time step continuity errors : sum local = 0.02067661187, global = -0.02067661187, cumulative = -0.5169152967
ExecutionTime = 0.13 s  ClockTime = 4 s

Courant Number mean: 0.01033830593 max: 0.25
Time = 0.52

Inner iteration:  0

DILUPBiCG:  Solving for thetaxx, Initial residual = 2.438124385e-11, Final residual = 2.438124385e-11, No Iterations 0
DILUPBiCG:  Solving for thetaxy, Initial residual = 1.423713536e-36, Final residual = 1.423713536e-36, No Iterations 0
DILUPBiCG:  Solving for thetayy, Initial residual = 8.614146668e-36, Final residual = 8.614146668e-36, No Iterations 0
DILUPBiCG:  Solving for thetazz, Initial residual = 1.922721745e-32, Final residual = 1.922721745e-32, No Iterations 0
Coupled system: p, U
Petsc:preonly:lu: Solving coupled for p, Initial residual = 1, Final residual = 1, No Iterations 1
Petsc:preonly:lu: Solving coupled for Uz, Initial residual = 1, Final residual = 1, No Iterations 1
time step continuity errors : sum local = 0.02067661187, global = -0.02067661187, cumulative = -0.5375919085
ExecutionTime = 0.13 s  ClockTime = 4 s

Courant Number mean: 0.01033830593 max: 0.25
Time = 0.54

Inner iteration:  0

DILUPBiCG:  Solving for thetaxx, Initial residual = 2.438124385e-11, Final residual = 2.438124385e-11, No Iterations 0
DILUPBiCG:  Solving for thetaxy, Initial residual = 1.423713559e-36, Final residual = 1.423713559e-36, No Iterations 0
DILUPBiCG:  Solving for thetayy, Initial residual = 8.144184554e-36, Final residual = 8.144184554e-36, No Iterations 0
DILUPBiCG:  Solving for thetazz, Initial residual = 1.982876895e-32, Final residual = 1.982876895e-32, No Iterations 0
Coupled system: p, U
Petsc:preonly:lu: Solving coupled for p, Initial residual = 1, Final residual = 1, No Iterations 1
Petsc:preonly:lu: Solving coupled for Uz, Initial residual = 1, Final residual = 1, No Iterations 1
time step continuity errors : sum local = 0.02067661187, global = -0.02067661187, cumulative = -0.5582685204
ExecutionTime = 0.14 s  ClockTime = 4 s

Courant Number mean: 0.01033830593 max: 0.25
Time = 0.56

Inner iteration:  0

DILUPBiCG:  Solving for thetaxx, Initial residual = 2.438124385e-11, Final residual = 2.438124385e-11, No Iterations 0
DILUPBiCG:  Solving for thetaxy, Initial residual = 1.423713438e-36, Final residual = 1.423713438e-36, No Iterations 0
DILUPBiCG:  Solving for thetayy, Initial residual = 8.434425987e-36, Final residual = 8.434425987e-36, No Iterations 0
DILUPBiCG:  Solving for thetazz, Initial residual = 2.042420298e-32, Final residual = 2.042420298e-32, No Iterations 0
Coupled system: p, U
Petsc:preonly:lu: Solving coupled for p, Initial residual = 1, Final residual = 1, No Iterations 1
Petsc:preonly:lu: Solving coupled for Uz, Initial residual = 1, Final residual = 1, No Iterations 1
time step continuity errors : sum local = 0.02067661187, global = -0.02067661187, cumulative = -0.5789451323
ExecutionTime = 0.14 s  ClockTime = 4 s

Courant Number mean: 0.01033830593 max: 0.25
Time = 0.58

Inner iteration:  0

DILUPBiCG:  Solving for thetaxx, Initial residual = 2.438124385e-11, Final residual = 2.438124385e-11, No Iterations 0
DILUPBiCG:  Solving for thetaxy, Initial residual = 1.423713195e-36, Final residual = 1.423713195e-36, No Iterations 0
DILUPBiCG:  Solving for thetayy, Initial residual = 6.206586518e-36, Final residual = 6.206586518e-36, No Iterations 0
DILUPBiCG:  Solving for thetazz, Initial residual = 1.583609828e-32, Final residual = 1.583609828e-32, No Iterations 0
Coupled system: p, U
Petsc:preonly:lu: Solving coupled for p, Initial residual = 1, Final residual = 1, No Iterations 1
Petsc:preonly:lu: Solving coupled for Uz, Initial residual = 1, Final residual = 1, No Iterations 1
time step continuity errors : sum local = 0.02067661187, global = -0.02067661187, cumulative = -0.5996217441
ExecutionTime = 0.14 s  ClockTime = 4 s

Courant Number mean: 0.01033830593 max: 0.25
Time = 0.6

Inner iteration:  0

DILUPBiCG:  Solving for thetaxx, Initial residual = 2.438124385e-11, Final residual = 2.438124385e-11, No Iterations 0
DILUPBiCG:  Solving for thetaxy, Initial residual = 1.423713529e-36, Final residual = 1.423713529e-36, No Iterations 0
DILUPBiCG:  Solving for thetayy, Initial residual = 8.522543883e-36, Final residual = 8.522543883e-36, No Iterations 0
DILUPBiCG:  Solving for thetazz, Initial residual = 1.982265148e-32, Final residual = 1.982265148e-32, No Iterations 0
Coupled system: p, U
Petsc:preonly:lu: Solving coupled for p, Initial residual = 1, Final residual = 1, No Iterations 1
Petsc:preonly:lu: Solving coupled for Uz, Initial residual = 1, Final residual = 1, No Iterations 1
time step continuity errors : sum local = 0.02067661187, global = -0.02067661187, cumulative = -0.620298356
ExecutionTime = 0.14 s  ClockTime = 4 s

Courant Number mean: 0.01033830593 max: 0.25
Time = 0.62

Inner iteration:  0

DILUPBiCG:  Solving for thetaxx, Initial residual = 2.438124385e-11, Final residual = 2.438124385e-11, No Iterations 0
DILUPBiCG:  Solving for thetaxy, Initial residual = 1.423713422e-36, Final residual = 1.423713422e-36, No Iterations 0
DILUPBiCG:  Solving for thetayy, Initial residual = 9.833857663e-36, Final residual = 9.833857663e-36, No Iterations 0
DILUPBiCG:  Solving for thetazz, Initial residual = 1.827289167e-32, Final residual = 1.827289167e-32, No Iterations 0
Coupled system: p, U
Petsc:preonly:lu: Solving coupled for p, Initial residual = 1, Final residual = 1, No Iterations 1
Petsc:preonly:lu: Solving coupled for Uz, Initial residual = 1, Final residual = 1, No Iterations 1
time step continuity errors : sum local = 0.02067661187, global = -0.02067661187, cumulative = -0.6409749679
ExecutionTime = 0.15 s  ClockTime = 4 s

Courant Number mean: 0.01033830593 max: 0.25
Time = 0.64

Inner iteration:  0

DILUPBiCG:  Solving for thetaxx, Initial residual = 2.438124385e-11, Final residual = 2.438124385e-11, No Iterations 0
DILUPBiCG:  Solving for thetaxy, Initial residual = 1.423713468e-36, Final residual = 1.423713468e-36, No Iterations 0
DILUPBiCG:  Solving for thetayy, Initial residual = 6.093078719e-36, Final residual = 6.093078719e-36, No Iterations 0
DILUPBiCG:  Solving for thetazz, Initial residual = 1.530999561e-32, Final residual = 1.530999561e-32, No Iterations 0
Coupled system: p, U
Petsc:preonly:lu: Solving coupled for p, Initial residual = 1, Final residual = 1, No Iterations 1
Petsc:preonly:lu: Solving coupled for Uz, Initial residual = 1, Final residual = 1, No Iterations 1
time step continuity errors : sum local = 0.02067661187, global = -0.02067661187, cumulative = -0.6616515797
ExecutionTime = 0.15 s  ClockTime = 4 s

Courant Number mean: 0.01033830593 max: 0.25
Time = 0.66

Inner iteration:  0

DILUPBiCG:  Solving for thetaxx, Initial residual = 2.438124385e-11, Final residual = 2.438124385e-11, No Iterations 0
DILUPBiCG:  Solving for thetaxy, Initial residual = 1.423713407e-36, Final residual = 1.423713407e-36, No Iterations 0
DILUPBiCG:  Solving for thetayy, Initial residual = 8.653973966e-36, Final residual = 8.653973966e-36, No Iterations 0
DILUPBiCG:  Solving for thetazz, Initial residual = 1.820559947e-32, Final residual = 1.820559947e-32, No Iterations 0
Coupled system: p, U
Petsc:preonly:lu: Solving coupled for p, Initial residual = 1, Final residual = 1, No Iterations 1
Petsc:preonly:lu: Solving coupled for Uz, Initial residual = 1, Final residual = 1, No Iterations 1
time step continuity errors : sum local = 0.02067661187, global = -0.02067661187, cumulative = -0.6823281916
ExecutionTime = 0.15 s  ClockTime = 4 s

Courant Number mean: 0.01033830593 max: 0.25
Time = 0.68

Inner iteration:  0

DILUPBiCG:  Solving for thetaxx, Initial residual = 2.438124385e-11, Final residual = 2.438124385e-11, No Iterations 0
DILUPBiCG:  Solving for thetaxy, Initial residual = 1.423713445e-36, Final residual = 1.423713445e-36, No Iterations 0
DILUPBiCG:  Solving for thetayy, Initial residual = 8.775447224e-36, Final residual = 8.775447224e-36, No Iterations 0
DILUPBiCG:  Solving for thetazz, Initial residual = 1.728593937e-32, Final residual = 1.728593937e-32, No Iterations 0
Coupled system: p, U
Petsc:preonly:lu: Solving coupled for p, Initial residual = 1, Final residual = 1, No Iterations 1
Petsc:preonly:lu: Solving coupled for Uz, Initial residual = 1, Final residual = 1, No Iterations 1
time step continuity errors : sum local = 0.02067661187, global = -0.02067661187, cumulative = -0.7030048035
ExecutionTime = 0.16 s  ClockTime = 4 s

Courant Number mean: 0.01033830593 max: 0.25
Time = 0.7

Inner iteration:  0

DILUPBiCG:  Solving for thetaxx, Initial residual = 2.438124385e-11, Final residual = 2.438124385e-11, No Iterations 0
DILUPBiCG:  Solving for thetaxy, Initial residual = 1.423713704e-36, Final residual = 1.423713704e-36, No Iterations 0
DILUPBiCG:  Solving for thetayy, Initial residual = 7.446211161e-36, Final residual = 7.446211161e-36, No Iterations 0
DILUPBiCG:  Solving for thetazz, Initial residual = 1.895804864e-32, Final residual = 1.895804864e-32, No Iterations 0
Coupled system: p, U
Petsc:preonly:lu: Solving coupled for p, Initial residual = 1, Final residual = 1, No Iterations 1
Petsc:preonly:lu: Solving coupled for Uz, Initial residual = 1, Final residual = 1, No Iterations 1
time step continuity errors : sum local = 0.02067661187, global = -0.02067661187, cumulative = -0.7236814153
ExecutionTime = 0.16 s  ClockTime = 4 s

Courant Number mean: 0.01033830593 max: 0.25
Time = 0.72

Inner iteration:  0

DILUPBiCG:  Solving for thetaxx, Initial residual = 2.438124385e-11, Final residual = 2.438124385e-11, No Iterations 0
DILUPBiCG:  Solving for thetaxy, Initial residual = 1.423713271e-36, Final residual = 1.423713271e-36, No Iterations 0
DILUPBiCG:  Solving for thetayy, Initial residual = 6.622283938e-36, Final residual = 6.622283938e-36, No Iterations 0
DILUPBiCG:  Solving for thetazz, Initial residual = 1.743071956e-32, Final residual = 1.743071956e-32, No Iterations 0
Coupled system: p, U
Petsc:preonly:lu: Solving coupled for p, Initial residual = 1, Final residual = 1, No Iterations 1
Petsc:preonly:lu: Solving coupled for Uz, Initial residual = 1, Final residual = 1, No Iterations 1
time step continuity errors : sum local = 0.02067661187, global = -0.02067661187, cumulative = -0.7443580272
ExecutionTime = 0.16 s  ClockTime = 4 s

Courant Number mean: 0.01033830593 max: 0.25
Time = 0.74

Inner iteration:  0

DILUPBiCG:  Solving for thetaxx, Initial residual = 2.438124385e-11, Final residual = 2.438124385e-11, No Iterations 0
DILUPBiCG:  Solving for thetaxy, Initial residual = 1.423713415e-36, Final residual = 1.423713415e-36, No Iterations 0
DILUPBiCG:  Solving for thetayy, Initial residual = 8.938739145e-36, Final residual = 8.938739145e-36, No Iterations 0
DILUPBiCG:  Solving for thetazz, Initial residual = 1.576676692e-32, Final residual = 1.576676692e-32, No Iterations 0
Coupled system: p, U
Petsc:preonly:lu: Solving coupled for p, Initial residual = 1, Final residual = 1, No Iterations 1
Petsc:preonly:lu: Solving coupled for Uz, Initial residual = 1, Final residual = 1, No Iterations 1
time step continuity errors : sum local = 0.02067661187, global = -0.02067661187, cumulative = -0.7650346391
ExecutionTime = 0.16 s  ClockTime = 4 s

Courant Number mean: 0.01033830593 max: 0.25
Time = 0.76

Inner iteration:  0

DILUPBiCG:  Solving for thetaxx, Initial residual = 2.438124385e-11, Final residual = 2.438124385e-11, No Iterations 0
DILUPBiCG:  Solving for thetaxy, Initial residual = 1.423713483e-36, Final residual = 1.423713483e-36, No Iterations 0
DILUPBiCG:  Solving for thetayy, Initial residual = 6.324077046e-36, Final residual = 6.324077046e-36, No Iterations 0
DILUPBiCG:  Solving for thetazz, Initial residual = 1.729817431e-32, Final residual = 1.729817431e-32, No Iterations 0
Coupled system: p, U
Petsc:preonly:lu: Solving coupled for p, Initial residual = 1, Final residual = 1, No Iterations 1
Petsc:preonly:lu: Solving coupled for Uz, Initial residual = 1, Final residual = 1, No Iterations 1
time step continuity errors : sum local = 0.02067661187, global = -0.02067661187, cumulative = -0.7857112509
ExecutionTime = 0.16 s  ClockTime = 4 s

Courant Number mean: 0.01033830593 max: 0.25
Time = 0.78

Inner iteration:  0

DILUPBiCG:  Solving for thetaxx, Initial residual = 2.438124385e-11, Final residual = 2.438124385e-11, No Iterations 0
DILUPBiCG:  Solving for thetaxy, Initial residual = 1.423713301e-36, Final residual = 1.423713301e-36, No Iterations 0
DILUPBiCG:  Solving for thetayy, Initial residual = 6.606353019e-36, Final residual = 6.606353019e-36, No Iterations 0
DILUPBiCG:  Solving for thetazz, Initial residual = 1.905184989e-32, Final residual = 1.905184989e-32, No Iterations 0
Coupled system: p, U
Petsc:preonly:lu: Solving coupled for p, Initial residual = 1, Final residual = 1, No Iterations 1
Petsc:preonly:lu: Solving coupled for Uz, Initial residual = 1, Final residual = 1, No Iterations 1
time step continuity errors : sum local = 0.02067661187, global = -0.02067661187, cumulative = -0.8063878628
ExecutionTime = 0.16 s  ClockTime = 4 s

Courant Number mean: 0.01033830593 max: 0.25
Time = 0.8

Inner iteration:  0

DILUPBiCG:  Solving for thetaxx, Initial residual = 2.438124385e-11, Final residual = 2.438124385e-11, No Iterations 0
DILUPBiCG:  Solving for thetaxy, Initial residual = 1.423713612e-36, Final residual = 1.423713612e-36, No Iterations 0
DILUPBiCG:  Solving for thetayy, Initial residual = 8.493669092e-36, Final residual = 8.493669092e-36, No Iterations 0
DILUPBiCG:  Solving for thetazz, Initial residual = 1.489706618e-32, Final residual = 1.489706618e-32, No Iterations 0
Coupled system: p, U
Petsc:preonly:lu: Solving coupled for p, Initial residual = 1, Final residual = 1, No Iterations 1
Petsc:preonly:lu: Solving coupled for Uz, Initial residual = 1, Final residual = 1, No Iterations 1
time step continuity errors : sum local = 0.02067661187, global = -0.02067661187, cumulative = -0.8270644747
ExecutionTime = 0.17 s  ClockTime = 4 s

Courant Number mean: 0.01033830593 max: 0.25
Time = 0.82

Inner iteration:  0

DILUPBiCG:  Solving for thetaxx, Initial residual = 2.438124385e-11, Final residual = 2.438124385e-11, No Iterations 0
DILUPBiCG:  Solving for thetaxy, Initial residual = 1.423713445e-36, Final residual = 1.423713445e-36, No Iterations 0
DILUPBiCG:  Solving for thetayy, Initial residual = 8.02022209e-36, Final residual = 8.02022209e-36, No Iterations 0
DILUPBiCG:  Solving for thetazz, Initial residual = 1.80547018e-32, Final residual = 1.80547018e-32, No Iterations 0
Coupled system: p, U
Petsc:preonly:lu: Solving coupled for p, Initial residual = 1, Final residual = 1, No Iterations 1
Petsc:preonly:lu: Solving coupled for Uz, Initial residual = 1, Final residual = 1, No Iterations 1
time step continuity errors : sum local = 0.02067661187, global = -0.02067661187, cumulative = -0.8477410865
ExecutionTime = 0.17 s  ClockTime = 4 s

Courant Number mean: 0.01033830593 max: 0.25
Time = 0.84

Inner iteration:  0

DILUPBiCG:  Solving for thetaxx, Initial residual = 2.438124385e-11, Final residual = 2.438124385e-11, No Iterations 0
DILUPBiCG:  Solving for thetaxy, Initial residual = 1.423713521e-36, Final residual = 1.423713521e-36, No Iterations 0
DILUPBiCG:  Solving for thetayy, Initial residual = 7.048436024e-36, Final residual = 7.048436024e-36, No Iterations 0
DILUPBiCG:  Solving for thetazz, Initial residual = 1.724719537e-32, Final residual = 1.724719537e-32, No Iterations 0
Coupled system: p, U
Petsc:preonly:lu: Solving coupled for p, Initial residual = 1, Final residual = 1, No Iterations 1
Petsc:preonly:lu: Solving coupled for Uz, Initial residual = 1, Final residual = 1, No Iterations 1
time step continuity errors : sum local = 0.02067661187, global = -0.02067661187, cumulative = -0.8684176984
ExecutionTime = 0.17 s  ClockTime = 4 s

Courant Number mean: 0.01033830593 max: 0.25
Time = 0.86

Inner iteration:  0

DILUPBiCG:  Solving for thetaxx, Initial residual = 2.438124385e-11, Final residual = 2.438124385e-11, No Iterations 0
DILUPBiCG:  Solving for thetaxy, Initial residual = 1.423713369e-36, Final residual = 1.423713369e-36, No Iterations 0
DILUPBiCG:  Solving for thetayy, Initial residual = 8.649991236e-36, Final residual = 8.649991236e-36, No Iterations 0
DILUPBiCG:  Solving for thetazz, Initial residual = 1.549963727e-32, Final residual = 1.549963727e-32, No Iterations 0
Coupled system: p, U
Petsc:preonly:lu: Solving coupled for p, Initial residual = 1, Final residual = 1, No Iterations 1
Petsc:preonly:lu: Solving coupled for Uz, Initial residual = 1, Final residual = 1, No Iterations 1
time step continuity errors : sum local = 0.02067661187, global = -0.02067661187, cumulative = -0.8890943103
ExecutionTime = 0.17 s  ClockTime = 4 s

Courant Number mean: 0.01033830593 max: 0.25
Time = 0.88

Inner iteration:  0

DILUPBiCG:  Solving for thetaxx, Initial residual = 2.438124385e-11, Final residual = 2.438124385e-11, No Iterations 0
DILUPBiCG:  Solving for thetaxy, Initial residual = 1.423713544e-36, Final residual = 1.423713544e-36, No Iterations 0
DILUPBiCG:  Solving for thetayy, Initial residual = 6.702436375e-36, Final residual = 6.702436375e-36, No Iterations 0
DILUPBiCG:  Solving for thetazz, Initial residual = 1.819744284e-32, Final residual = 1.819744284e-32, No Iterations 0
Coupled system: p, U
Petsc:preonly:lu: Solving coupled for p, Initial residual = 1, Final residual = 1, No Iterations 1
Petsc:preonly:lu: Solving coupled for Uz, Initial residual = 1, Final residual = 1, No Iterations 1
time step continuity errors : sum local = 0.02067661187, global = -0.02067661187, cumulative = -0.9097709221
ExecutionTime = 0.18 s  ClockTime = 4 s

Courant Number mean: 0.01033830593 max: 0.25
Time = 0.9

Inner iteration:  0

DILUPBiCG:  Solving for thetaxx, Initial residual = 2.438124385e-11, Final residual = 2.438124385e-11, No Iterations 0
DILUPBiCG:  Solving for thetaxy, Initial residual = 1.423713491e-36, Final residual = 1.423713491e-36, No Iterations 0
DILUPBiCG:  Solving for thetayy, Initial residual = 8.821248617e-36, Final residual = 8.821248617e-36, No Iterations 0
DILUPBiCG:  Solving for thetazz, Initial residual = 1.609914962e-32, Final residual = 1.609914962e-32, No Iterations 0
Coupled system: p, U
Petsc:preonly:lu: Solving coupled for p, Initial residual = 1, Final residual = 1, No Iterations 1
Petsc:preonly:lu: Solving coupled for Uz, Initial residual = 1, Final residual = 1, No Iterations 1
time step continuity errors : sum local = 0.02067661187, global = -0.02067661187, cumulative = -0.930447534
ExecutionTime = 0.18 s  ClockTime = 4 s

Courant Number mean: 0.01033830593 max: 0.25
Time = 0.92

Inner iteration:  0

DILUPBiCG:  Solving for thetaxx, Initial residual = 2.438124385e-11, Final residual = 2.438124385e-11, No Iterations 0
DILUPBiCG:  Solving for thetaxy, Initial residual = 1.423713574e-36, Final residual = 1.423713574e-36, No Iterations 0
DILUPBiCG:  Solving for thetayy, Initial residual = 4.212234581e-36, Final residual = 4.212234581e-36, No Iterations 0
DILUPBiCG:  Solving for thetazz, Initial residual = 1.659976282e-32, Final residual = 1.659976282e-32, No Iterations 0
Coupled system: p, U
Petsc:preonly:lu: Solving coupled for p, Initial residual = 1, Final residual = 1, No Iterations 1
Petsc:preonly:lu: Solving coupled for Uz, Initial residual = 1, Final residual = 1, No Iterations 1
time step continuity errors : sum local = 0.02067661187, global = -0.02067661187, cumulative = -0.9511241459
ExecutionTime = 0.18 s  ClockTime = 4 s

Courant Number mean: 0.01033830593 max: 0.25
Time = 0.94

Inner iteration:  0

DILUPBiCG:  Solving for thetaxx, Initial residual = 2.438124385e-11, Final residual = 2.438124385e-11, No Iterations 0
DILUPBiCG:  Solving for thetaxy, Initial residual = 1.423713309e-36, Final residual = 1.423713309e-36, No Iterations 0
DILUPBiCG:  Solving for thetayy, Initial residual = 8.334857743e-36, Final residual = 8.334857743e-36, No Iterations 0
DILUPBiCG:  Solving for thetazz, Initial residual = 1.761424375e-32, Final residual = 1.761424375e-32, No Iterations 0
Coupled system: p, U
Petsc:preonly:lu: Solving coupled for p, Initial residual = 1, Final residual = 1, No Iterations 1
Petsc:preonly:lu: Solving coupled for Uz, Initial residual = 1, Final residual = 1, No Iterations 1
time step continuity errors : sum local = 0.02067661187, global = -0.02067661187, cumulative = -0.9718007577
ExecutionTime = 0.18 s  ClockTime = 4 s

Courant Number mean: 0.01033830593 max: 0.25
Time = 0.96

Inner iteration:  0

DILUPBiCG:  Solving for thetaxx, Initial residual = 2.438124385e-11, Final residual = 2.438124385e-11, No Iterations 0
DILUPBiCG:  Solving for thetaxy, Initial residual = 1.423713574e-36, Final residual = 1.423713574e-36, No Iterations 0
DILUPBiCG:  Solving for thetayy, Initial residual = 5.571341118e-36, Final residual = 5.571341118e-36, No Iterations 0
DILUPBiCG:  Solving for thetazz, Initial residual = 1.521619436e-32, Final residual = 1.521619436e-32, No Iterations 0
Coupled system: p, U
Petsc:preonly:lu: Solving coupled for p, Initial residual = 1, Final residual = 1, No Iterations 1
Petsc:preonly:lu: Solving coupled for Uz, Initial residual = 1, Final residual = 1, No Iterations 1
time step continuity errors : sum local = 0.02067661187, global = -0.02067661187, cumulative = -0.9924773696
ExecutionTime = 0.19 s  ClockTime = 4 s

Courant Number mean: 0.01033830593 max: 0.25
Time = 0.98

Inner iteration:  0

DILUPBiCG:  Solving for thetaxx, Initial residual = 2.438124385e-11, Final residual = 2.438124385e-11, No Iterations 0
DILUPBiCG:  Solving for thetaxy, Initial residual = 1.423713476e-36, Final residual = 1.423713476e-36, No Iterations 0
DILUPBiCG:  Solving for thetayy, Initial residual = 8.920816861e-36, Final residual = 8.920816861e-36, No Iterations 0
DILUPBiCG:  Solving for thetazz, Initial residual = 1.58544507e-32, Final residual = 1.58544507e-32, No Iterations 0
Coupled system: p, U
Petsc:preonly:lu: Solving coupled for p, Initial residual = 1, Final residual = 1, No Iterations 1
Petsc:preonly:lu: Solving coupled for Uz, Initial residual = 1, Final residual = 1, No Iterations 1
time step continuity errors : sum local = 0.02067661187, global = -0.02067661187, cumulative = -1.013153981
ExecutionTime = 0.19 s  ClockTime = 4 s

Courant Number mean: 0.01033830593 max: 0.25
Time = 1

Inner iteration:  0

DILUPBiCG:  Solving for thetaxx, Initial residual = 2.438124385e-11, Final residual = 2.438124385e-11, No Iterations 0
DILUPBiCG:  Solving for thetaxy, Initial residual = 1.423713544e-36, Final residual = 1.423713544e-36, No Iterations 0
DILUPBiCG:  Solving for thetayy, Initial residual = 5.35229098e-36, Final residual = 5.35229098e-36, No Iterations 0
DILUPBiCG:  Solving for thetazz, Initial residual = 1.795682223e-32, Final residual = 1.795682223e-32, No Iterations 0
Coupled system: p, U
Petsc:preonly:lu: Solving coupled for p, Initial residual = 1, Final residual = 1, No Iterations 1
Petsc:preonly:lu: Solving coupled for Uz, Initial residual = 1, Final residual = 1, No Iterations 1
time step continuity errors : sum local = 0.02067661187, global = -0.02067661187, cumulative = -1.033830593
ExecutionTime = 0.19 s  ClockTime = 4 s

Courant Number mean: 0.01033830593 max: 0.25
Time = 1.02

Inner iteration:  0

DILUPBiCG:  Solving for thetaxx, Initial residual = 2.438124385e-11, Final residual = 2.438124385e-11, No Iterations 0
DILUPBiCG:  Solving for thetaxy, Initial residual = 1.42371343e-36, Final residual = 1.42371343e-36, No Iterations 0
DILUPBiCG:  Solving for thetayy, Initial residual = 8.533994231e-36, Final residual = 8.533994231e-36, No Iterations 0
DILUPBiCG:  Solving for thetazz, Initial residual = 1.646517841e-32, Final residual = 1.646517841e-32, No Iterations 0
Coupled system: p, U
Petsc:preonly:lu: Solving coupled for p, Initial residual = 1, Final residual = 1, No Iterations 1
Petsc:preonly:lu: Solving coupled for Uz, Initial residual = 1, Final residual = 1, No Iterations 1
time step continuity errors : sum local = 0.02067661187, global = -0.02067661187, cumulative = -1.054507205
ExecutionTime = 0.19 s  ClockTime = 4 s

Courant Number mean: 0.01033830593 max: 0.25
Time = 1.04

Inner iteration:  0

DILUPBiCG:  Solving for thetaxx, Initial residual = 2.438124385e-11, Final residual = 2.438124385e-11, No Iterations 0
DILUPBiCG:  Solving for thetaxy, Initial residual = 1.423713453e-36, Final residual = 1.423713453e-36, No Iterations 0
DILUPBiCG:  Solving for thetayy, Initial residual = 5.54346201e-36, Final residual = 5.54346201e-36, No Iterations 0
DILUPBiCG:  Solving for thetazz, Initial residual = 1.856347163e-32, Final residual = 1.856347163e-32, No Iterations 0
Coupled system: p, U
Petsc:preonly:lu: Solving coupled for p, Initial residual = 1, Final residual = 1, No Iterations 1
Petsc:preonly:lu: Solving coupled for Uz, Initial residual = 1, Final residual = 1, No Iterations 1
time step continuity errors : sum local = 0.02067661187, global = -0.02067661187, cumulative = -1.075183817
ExecutionTime = 0.19 s  ClockTime = 4 s

Courant Number mean: 0.01033830593 max: 0.25
Time = 1.06

Inner iteration:  0

DILUPBiCG:  Solving for thetaxx, Initial residual = 2.438124385e-11, Final residual = 2.438124385e-11, No Iterations 0
DILUPBiCG:  Solving for thetaxy, Initial residual = 1.423713476e-36, Final residual = 1.423713476e-36, No Iterations 0
DILUPBiCG:  Solving for thetayy, Initial residual = 8.494664775e-36, Final residual = 8.494664775e-36, No Iterations 0
DILUPBiCG:  Solving for thetazz, Initial residual = 1.710037602e-32, Final residual = 1.710037602e-32, No Iterations 0
Coupled system: p, U
Petsc:preonly:lu: Solving coupled for p, Initial residual = 1, Final residual = 1, No Iterations 1
Petsc:preonly:lu: Solving coupled for Uz, Initial residual = 1, Final residual = 1, No Iterations 1
time step continuity errors : sum local = 0.02067661187, global = -0.02067661187, cumulative = -1.095860429
ExecutionTime = 0.2 s  ClockTime = 4 s

Courant Number mean: 0.01033830593 max: 0.25
Time = 1.08

Inner iteration:  0

DILUPBiCG:  Solving for thetaxx, Initial residual = 2.438124385e-11, Final residual = 2.438124385e-11, No Iterations 0
DILUPBiCG:  Solving for thetaxy, Initial residual = 1.423713514e-36, Final residual = 1.423713514e-36, No Iterations 0
DILUPBiCG:  Solving for thetayy, Initial residual = 3.766168846e-36, Final residual = 3.766168846e-36, No Iterations 0
DILUPBiCG:  Solving for thetazz, Initial residual = 1.658242998e-32, Final residual = 1.658242998e-32, No Iterations 0
Coupled system: p, U
Petsc:preonly:lu: Solving coupled for p, Initial residual = 1, Final residual = 1, No Iterations 1
Petsc:preonly:lu: Solving coupled for Uz, Initial residual = 1, Final residual = 1, No Iterations 1
time step continuity errors : sum local = 0.02067661187, global = -0.02067661187, cumulative = -1.116537041
ExecutionTime = 0.2 s  ClockTime = 4 s

Courant Number mean: 0.01033830593 max: 0.25
Time = 1.1

Inner iteration:  0

DILUPBiCG:  Solving for thetaxx, Initial residual = 2.438124385e-11, Final residual = 2.438124385e-11, No Iterations 0
DILUPBiCG:  Solving for thetaxy, Initial residual = 1.423713369e-36, Final residual = 1.423713369e-36, No Iterations 0
DILUPBiCG:  Solving for thetayy, Initial residual = 8.53747912e-36, Final residual = 8.53747912e-36, No Iterations 0
DILUPBiCG:  Solving for thetazz, Initial residual = 1.715543328e-32, Final residual = 1.715543328e-32, No Iterations 0
Coupled system: p, U
Petsc:preonly:lu: Solving coupled for p, Initial residual = 1, Final residual = 1, No Iterations 1
Petsc:preonly:lu: Solving coupled for Uz, Initial residual = 1, Final residual = 1, No Iterations 1
time step continuity errors : sum local = 0.02067661187, global = -0.02067661187, cumulative = -1.137213653
ExecutionTime = 0.2 s  ClockTime = 4 s

Courant Number mean: 0.01033830593 max: 0.25
Time = 1.12

Inner iteration:  0

DILUPBiCG:  Solving for thetaxx, Initial residual = 2.438124385e-11, Final residual = 2.438124385e-11, No Iterations 0
DILUPBiCG:  Solving for thetaxy, Initial residual = 1.423713438e-36, Final residual = 1.423713438e-36, No Iterations 0
DILUPBiCG:  Solving for thetayy, Initial residual = 6.534663883e-36, Final residual = 6.534663883e-36, No Iterations 0
DILUPBiCG:  Solving for thetazz, Initial residual = 1.664666345e-32, Final residual = 1.664666345e-32, No Iterations 0
Coupled system: p, U
Petsc:preonly:lu: Solving coupled for p, Initial residual = 1, Final residual = 1, No Iterations 1
Petsc:preonly:lu: Solving coupled for Uz, Initial residual = 1, Final residual = 1, No Iterations 1
time step continuity errors : sum local = 0.02067661187, global = -0.02067661187, cumulative = -1.157890265
ExecutionTime = 0.2 s  ClockTime = 4 s

Courant Number mean: 0.01033830593 max: 0.25
Time = 1.14

Inner iteration:  0

DILUPBiCG:  Solving for thetaxx, Initial residual = 2.438124385e-11, Final residual = 2.438124385e-11, No Iterations 0
DILUPBiCG:  Solving for thetaxy, Initial residual = 1.423713582e-36, Final residual = 1.423713582e-36, No Iterations 0
DILUPBiCG:  Solving for thetayy, Initial residual = 9.870697913e-36, Final residual = 9.870697913e-36, No Iterations 0
DILUPBiCG:  Solving for thetazz, Initial residual = 1.889891307e-32, Final residual = 1.889891307e-32, No Iterations 0
Coupled system: p, U
Petsc:preonly:lu: Solving coupled for p, Initial residual = 1, Final residual = 1, No Iterations 1
Petsc:preonly:lu: Solving coupled for Uz, Initial residual = 1, Final residual = 1, No Iterations 1
time step continuity errors : sum local = 0.02067661187, global = -0.02067661187, cumulative = -1.178566876
ExecutionTime = 0.21 s  ClockTime = 4 s

Courant Number mean: 0.01033830593 max: 0.25
Time = 1.16

Inner iteration:  0

DILUPBiCG:  Solving for thetaxx, Initial residual = 2.438124385e-11, Final residual = 2.438124385e-11, No Iterations 0
DILUPBiCG:  Solving for thetaxy, Initial residual = 1.423713559e-36, Final residual = 1.423713559e-36, No Iterations 0
DILUPBiCG:  Solving for thetayy, Initial residual = 5.289562986e-36, Final residual = 5.289562986e-36, No Iterations 0
DILUPBiCG:  Solving for thetazz, Initial residual = 1.52090573e-32, Final residual = 1.52090573e-32, No Iterations 0
Coupled system: p, U
Petsc:preonly:lu: Solving coupled for p, Initial residual = 1, Final residual = 1, No Iterations 1
Petsc:preonly:lu: Solving coupled for Uz, Initial residual = 1, Final residual = 1, No Iterations 1
time step continuity errors : sum local = 0.02067661187, global = -0.02067661187, cumulative = -1.199243488
ExecutionTime = 0.21 s  ClockTime = 4 s

Courant Number mean: 0.01033830593 max: 0.25
Time = 1.18

Inner iteration:  0

DILUPBiCG:  Solving for thetaxx, Initial residual = 2.438124385e-11, Final residual = 2.438124385e-11, No Iterations 0
DILUPBiCG:  Solving for thetaxy, Initial residual = 1.423713506e-36, Final residual = 1.423713506e-36, No Iterations 0
DILUPBiCG:  Solving for thetayy, Initial residual = 7.929117146e-36, Final residual = 7.929117146e-36, No Iterations 0
DILUPBiCG:  Solving for thetazz, Initial residual = 1.801187949e-32, Final residual = 1.801187949e-32, No Iterations 0
Coupled system: p, U
Petsc:preonly:lu: Solving coupled for p, Initial residual = 1, Final residual = 1, No Iterations 1
Petsc:preonly:lu: Solving coupled for Uz, Initial residual = 1, Final residual = 1, No Iterations 1
time step continuity errors : sum local = 0.02067661187, global = -0.02067661187, cumulative = -1.2199201
ExecutionTime = 0.21 s  ClockTime = 4 s

Courant Number mean: 0.01033830593 max: 0.25
Time = 1.2

Inner iteration:  0

DILUPBiCG:  Solving for thetaxx, Initial residual = 2.438124385e-11, Final residual = 2.438124385e-11, No Iterations 0
DILUPBiCG:  Solving for thetaxy, Initial residual = 1.423713666e-36, Final residual = 1.423713666e-36, No Iterations 0
DILUPBiCG:  Solving for thetayy, Initial residual = 6.824407474e-36, Final residual = 6.824407474e-36, No Iterations 0
DILUPBiCG:  Solving for thetazz, Initial residual = 1.51417651e-32, Final residual = 1.51417651e-32, No Iterations 0
Coupled system: p, U
Petsc:preonly:lu: Solving coupled for p, Initial residual = 1, Final residual = 1, No Iterations 1
Petsc:preonly:lu: Solving coupled for Uz, Initial residual = 1, Final residual = 1, No Iterations 1
time step continuity errors : sum local = 0.02067661187, global = -0.02067661187, cumulative = -1.240596712
ExecutionTime = 0.21 s  ClockTime = 4 s

Courant Number mean: 0.01033830593 max: 0.25
Time = 1.22

Inner iteration:  0

DILUPBiCG:  Solving for thetaxx, Initial residual = 2.438124385e-11, Final residual = 2.438124385e-11, No Iterations 0
DILUPBiCG:  Solving for thetaxy, Initial residual = 1.423713491e-36, Final residual = 1.423713491e-36, No Iterations 0
DILUPBiCG:  Solving for thetayy, Initial residual = 8.438906558e-36, Final residual = 8.438906558e-36, No Iterations 0
DILUPBiCG:  Solving for thetazz, Initial residual = 1.828410704e-32, Final residual = 1.828410704e-32, No Iterations 0
Coupled system: p, U
Petsc:preonly:lu: Solving coupled for p, Initial residual = 1, Final residual = 1, No Iterations 1
Petsc:preonly:lu: Solving coupled for Uz, Initial residual = 1, Final residual = 1, No Iterations 1
time step continuity errors : sum local = 0.02067661187, global = -0.02067661187, cumulative = -1.261273324
ExecutionTime = 0.22 s  ClockTime = 4 s

Courant Number mean: 0.01033830593 max: 0.25
Time = 1.24

Inner iteration:  0

DILUPBiCG:  Solving for thetaxx, Initial residual = 2.438124385e-11, Final residual = 2.438124385e-11, No Iterations 0
DILUPBiCG:  Solving for thetaxy, Initial residual = 1.423713438e-36, Final residual = 1.423713438e-36, No Iterations 0
DILUPBiCG:  Solving for thetayy, Initial residual = 5.790391256e-36, Final residual = 5.790391256e-36, No Iterations 0
DILUPBiCG:  Solving for thetazz, Initial residual = 1.897028358e-32, Final residual = 1.897028358e-32, No Iterations 0
Coupled system: p, U
Petsc:preonly:lu: Solving coupled for p, Initial residual = 1, Final residual = 1, No Iterations 1
Petsc:preonly:lu: Solving coupled for Uz, Initial residual = 1, Final residual = 1, No Iterations 1
time step continuity errors : sum local = 0.02067661187, global = -0.02067661187, cumulative = -1.281949936
ExecutionTime = 0.22 s  ClockTime = 4 s

Courant Number mean: 0.01033830593 max: 0.25
Time = 1.26

Inner iteration:  0

DILUPBiCG:  Solving for thetaxx, Initial residual = 2.438124385e-11, Final residual = 2.438124385e-11, No Iterations 0
DILUPBiCG:  Solving for thetaxy, Initial residual = 1.42371346e-36, Final residual = 1.42371346e-36, No Iterations 0
DILUPBiCG:  Solving for thetayy, Initial residual = 8.725165261e-36, Final residual = 8.725165261e-36, No Iterations 0
DILUPBiCG:  Solving for thetazz, Initial residual = 1.698822235e-32, Final residual = 1.698822235e-32, No Iterations 0
Coupled system: p, U
Petsc:preonly:lu: Solving coupled for p, Initial residual = 1, Final residual = 1, No Iterations 1
Petsc:preonly:lu: Solving coupled for Uz, Initial residual = 1, Final residual = 1, No Iterations 1
time step continuity errors : sum local = 0.02067661187, global = -0.02067661187, cumulative = -1.302626548
ExecutionTime = 0.22 s  ClockTime = 4 s

Courant Number mean: 0.01033830593 max: 0.25
Time = 1.28

Inner iteration:  0

DILUPBiCG:  Solving for thetaxx, Initial residual = 2.438124385e-11, Final residual = 2.438124385e-11, No Iterations 0
DILUPBiCG:  Solving for thetaxy, Initial residual = 1.423713605e-36, Final residual = 1.423713605e-36, No Iterations 0
DILUPBiCG:  Solving for thetayy, Initial residual = 5.786408526e-36, Final residual = 5.786408526e-36, No Iterations 0
DILUPBiCG:  Solving for thetazz, Initial residual = 1.635812264e-32, Final residual = 1.635812264e-32, No Iterations 0
Coupled system: p, U
Petsc:preonly:lu: Solving coupled for p, Initial residual = 1, Final residual = 1, No Iterations 1
Petsc:preonly:lu: Solving coupled for Uz, Initial residual = 1, Final residual = 1, No Iterations 1
time step continuity errors : sum local = 0.02067661187, global = -0.02067661187, cumulative = -1.323303159
ExecutionTime = 0.23 s  ClockTime = 4 s

Courant Number mean: 0.01033830593 max: 0.25
Time = 1.3

Inner iteration:  0

DILUPBiCG:  Solving for thetaxx, Initial residual = 2.438124385e-11, Final residual = 2.438124385e-11, No Iterations 0
DILUPBiCG:  Solving for thetaxy, Initial residual = 1.42371346e-36, Final residual = 1.42371346e-36, No Iterations 0
DILUPBiCG:  Solving for thetayy, Initial residual = 8.04461631e-36, Final residual = 8.04461631e-36, No Iterations 0
DILUPBiCG:  Solving for thetazz, Initial residual = 1.841359355e-32, Final residual = 1.841359355e-32, No Iterations 0
Coupled system: p, U
Petsc:preonly:lu: Solving coupled for p, Initial residual = 1, Final residual = 1, No Iterations 1
Petsc:preonly:lu: Solving coupled for Uz, Initial residual = 1, Final residual = 1, No Iterations 1
time step continuity errors : sum local = 0.02067661187, global = -0.02067661187, cumulative = -1.343979771
ExecutionTime = 0.23 s  ClockTime = 4 s

Courant Number mean: 0.01033830593 max: 0.25
Time = 1.32

Inner iteration:  0

DILUPBiCG:  Solving for thetaxx, Initial residual = 2.438124385e-11, Final residual = 2.438124385e-11, No Iterations 0
DILUPBiCG:  Solving for thetaxy, Initial residual = 1.423713559e-36, Final residual = 1.423713559e-36, No Iterations 0
DILUPBiCG:  Solving for thetayy, Initial residual = 6.324077046e-36, Final residual = 6.324077046e-36, No Iterations 0
DILUPBiCG:  Solving for thetazz, Initial residual = 1.86807232e-32, Final residual = 1.86807232e-32, No Iterations 0
Coupled system: p, U
Petsc:preonly:lu: Solving coupled for p, Initial residual = 1, Final residual = 1, No Iterations 1
Petsc:preonly:lu: Solving coupled for Uz, Initial residual = 1, Final residual = 1, No Iterations 1
time step continuity errors : sum local = 0.02067661187, global = -0.02067661187, cumulative = -1.364656383
ExecutionTime = 0.23 s  ClockTime = 4 s

Courant Number mean: 0.01033830593 max: 0.25
Time = 1.34

Inner iteration:  0

DILUPBiCG:  Solving for thetaxx, Initial residual = 2.438124385e-11, Final residual = 2.438124385e-11, No Iterations 0
DILUPBiCG:  Solving for thetaxy, Initial residual = 1.423713582e-36, Final residual = 1.423713582e-36, No Iterations 0
DILUPBiCG:  Solving for thetayy, Initial residual = 8.434923828e-36, Final residual = 8.434923828e-36, No Iterations 0
DILUPBiCG:  Solving for thetazz, Initial residual = 1.912423999e-32, Final residual = 1.912423999e-32, No Iterations 0
Coupled system: p, U
Petsc:preonly:lu: Solving coupled for p, Initial residual = 1, Final residual = 1, No Iterations 1
Petsc:preonly:lu: Solving coupled for Uz, Initial residual = 1, Final residual = 1, No Iterations 1
time step continuity errors : sum local = 0.02067661187, global = -0.02067661187, cumulative = -1.385332995
ExecutionTime = 0.23 s  ClockTime = 4 s

Courant Number mean: 0.01033830593 max: 0.25
Time = 1.36

Inner iteration:  0

DILUPBiCG:  Solving for thetaxx, Initial residual = 2.438124385e-11, Final residual = 2.438124385e-11, No Iterations 0
DILUPBiCG:  Solving for thetaxy, Initial residual = 1.423713559e-36, Final residual = 1.423713559e-36, No Iterations 0
DILUPBiCG:  Solving for thetayy, Initial residual = 5.891950865e-36, Final residual = 5.891950865e-36, No Iterations 0
DILUPBiCG:  Solving for thetazz, Initial residual = 1.644988473e-32, Final residual = 1.644988473e-32, No Iterations 0
Coupled system: p, U
Petsc:preonly:lu: Solving coupled for p, Initial residual = 1, Final residual = 1, No Iterations 1
Petsc:preonly:lu: Solving coupled for Uz, Initial residual = 1, Final residual = 1, No Iterations 1
time step continuity errors : sum local = 0.02067661187, global = -0.02067661187, cumulative = -1.406009607
ExecutionTime = 0.23 s  ClockTime = 4 s

Courant Number mean: 0.01033830593 max: 0.25
Time = 1.38

Inner iteration:  0

DILUPBiCG:  Solving for thetaxx, Initial residual = 2.438124385e-11, Final residual = 2.438124385e-11, No Iterations 0
DILUPBiCG:  Solving for thetaxy, Initial residual = 1.423713506e-36, Final residual = 1.423713506e-36, No Iterations 0
DILUPBiCG:  Solving for thetayy, Initial residual = 7.354608376e-36, Final residual = 7.354608376e-36, No Iterations 0
DILUPBiCG:  Solving for thetazz, Initial residual = 1.785078604e-32, Final residual = 1.785078604e-32, No Iterations 0
Coupled system: p, U
Petsc:preonly:lu: Solving coupled for p, Initial residual = 1, Final residual = 1, No Iterations 1
Petsc:preonly:lu: Solving coupled for Uz, Initial residual = 1, Final residual = 1, No Iterations 1
time step continuity errors : sum local = 0.02067661187, global = -0.02067661187, cumulative = -1.426686219
ExecutionTime = 0.24 s  ClockTime = 4 s

Courant Number mean: 0.01033830593 max: 0.25
Time = 1.4

Inner iteration:  0

DILUPBiCG:  Solving for thetaxx, Initial residual = 2.438124385e-11, Final residual = 2.438124385e-11, No Iterations 0
DILUPBiCG:  Solving for thetaxy, Initial residual = 1.423713666e-36, Final residual = 1.423713666e-36, No Iterations 0
DILUPBiCG:  Solving for thetayy, Initial residual = 6.699449328e-36, Final residual = 6.699449328e-36, No Iterations 0
DILUPBiCG:  Solving for thetazz, Initial residual = 1.526921246e-32, Final residual = 1.526921246e-32, No Iterations 0
Coupled system: p, U
Petsc:preonly:lu: Solving coupled for p, Initial residual = 1, Final residual = 1, No Iterations 1
Petsc:preonly:lu: Solving coupled for Uz, Initial residual = 1, Final residual = 1, No Iterations 1
time step continuity errors : sum local = 0.02067661187, global = -0.02067661187, cumulative = -1.447362831
ExecutionTime = 0.24 s  ClockTime = 4 s

Courant Number mean: 0.01033830593 max: 0.25
Time = 1.42

Inner iteration:  0

DILUPBiCG:  Solving for thetaxx, Initial residual = 2.438124385e-11, Final residual = 2.438124385e-11, No Iterations 0
DILUPBiCG:  Solving for thetaxy, Initial residual = 1.423713491e-36, Final residual = 1.423713491e-36, No Iterations 0
DILUPBiCG:  Solving for thetayy, Initial residual = 8.510595694e-36, Final residual = 8.510595694e-36, No Iterations 0
DILUPBiCG:  Solving for thetazz, Initial residual = 1.832590977e-32, Final residual = 1.832590977e-32, No Iterations 0
Coupled system: p, U
Petsc:preonly:lu: Solving coupled for p, Initial residual = 1, Final residual = 1, No Iterations 1
Petsc:preonly:lu: Solving coupled for Uz, Initial residual = 1, Final residual = 1, No Iterations 1
time step continuity errors : sum local = 0.02067661187, global = -0.02067661187, cumulative = -1.468039443
ExecutionTime = 0.24 s  ClockTime = 4 s

Courant Number mean: 0.01033830593 max: 0.25
Time = 1.44

Inner iteration:  0

DILUPBiCG:  Solving for thetaxx, Initial residual = 2.438124385e-11, Final residual = 2.438124385e-11, No Iterations 0
DILUPBiCG:  Solving for thetaxy, Initial residual = 1.423713438e-36, Final residual = 1.423713438e-36, No Iterations 0
DILUPBiCG:  Solving for thetayy, Initial residual = 5.686840282e-36, Final residual = 5.686840282e-36, No Iterations 0
DILUPBiCG:  Solving for thetazz, Initial residual = 2.030899058e-32, Final residual = 2.030899058e-32, No Iterations 0
Coupled system: p, U
Petsc:preonly:lu: Solving coupled for p, Initial residual = 1, Final residual = 1, No Iterations 1
Petsc:preonly:lu: Solving coupled for Uz, Initial residual = 1, Final residual = 1, No Iterations 1
time step continuity errors : sum local = 0.02067661187, global = -0.02067661187, cumulative = -1.488716054
ExecutionTime = 0.24 s  ClockTime = 4 s

Courant Number mean: 0.01033830593 max: 0.25
Time = 1.46

Inner iteration:  0

DILUPBiCG:  Solving for thetaxx, Initial residual = 2.438124385e-11, Final residual = 2.438124385e-11, No Iterations 0
DILUPBiCG:  Solving for thetaxy, Initial residual = 1.42371346e-36, Final residual = 1.42371346e-36, No Iterations 0
DILUPBiCG:  Solving for thetayy, Initial residual = 8.741594021e-36, Final residual = 8.741594021e-36, No Iterations 0
DILUPBiCG:  Solving for thetazz, Initial residual = 1.640094495e-32, Final residual = 1.640094495e-32, No Iterations 0
Coupled system: p, U
Petsc:preonly:lu: Solving coupled for p, Initial residual = 1, Final residual = 1, No Iterations 1
Petsc:preonly:lu: Solving coupled for Uz, Initial residual = 1, Final residual = 1, No Iterations 1
time step continuity errors : sum local = 0.02067661187, global = -0.02067661187, cumulative = -1.509392666
ExecutionTime = 0.25 s  ClockTime = 4 s

Courant Number mean: 0.01033830593 max: 0.25
Time = 1.48

Inner iteration:  0

DILUPBiCG:  Solving for thetaxx, Initial residual = 2.438124385e-11, Final residual = 2.438124385e-11, No Iterations 0
DILUPBiCG:  Solving for thetaxy, Initial residual = 1.423713605e-36, Final residual = 1.423713605e-36, No Iterations 0
DILUPBiCG:  Solving for thetayy, Initial residual = 5.711732343e-36, Final residual = 5.711732343e-36, No Iterations 0
DILUPBiCG:  Solving for thetazz, Initial residual = 1.679654153e-32, Final residual = 1.679654153e-32, No Iterations 0
Coupled system: p, U
Petsc:preonly:lu: Solving coupled for p, Initial residual = 1, Final residual = 1, No Iterations 1
Petsc:preonly:lu: Solving coupled for Uz, Initial residual = 1, Final residual = 1, No Iterations 1
time step continuity errors : sum local = 0.02067661187, global = -0.02067661187, cumulative = -1.530069278
ExecutionTime = 0.25 s  ClockTime = 4 s

Courant Number mean: 0.01033830593 max: 0.25
Time = 1.5

Inner iteration:  0

DILUPBiCG:  Solving for thetaxx, Initial residual = 2.438124385e-11, Final residual = 2.438124385e-11, No Iterations 0
DILUPBiCG:  Solving for thetaxy, Initial residual = 1.42371346e-36, Final residual = 1.42371346e-36, No Iterations 0
DILUPBiCG:  Solving for thetayy, Initial residual = 9.000471457e-36, Final residual = 9.000471457e-36, No Iterations 0
DILUPBiCG:  Solving for thetazz, Initial residual = 1.67883849e-32, Final residual = 1.67883849e-32, No Iterations 0
Coupled system: p, U
Petsc:preonly:lu: Solving coupled for p, Initial residual = 1, Final residual = 1, No Iterations 1
Petsc:preonly:lu: Solving coupled for Uz, Initial residual = 1, Final residual = 1, No Iterations 1
time step continuity errors : sum local = 0.02067661187, global = -0.02067661187, cumulative = -1.55074589
ExecutionTime = 0.25 s  ClockTime = 4 s

Courant Number mean: 0.01033830593 max: 0.25
Time = 1.52

Inner iteration:  0

DILUPBiCG:  Solving for thetaxx, Initial residual = 2.438124385e-11, Final residual = 2.438124385e-11, No Iterations 0
DILUPBiCG:  Solving for thetaxy, Initial residual = 1.423713559e-36, Final residual = 1.423713559e-36, No Iterations 0
DILUPBiCG:  Solving for thetayy, Initial residual = 6.408710054e-36, Final residual = 6.408710054e-36, No Iterations 0
DILUPBiCG:  Solving for thetazz, Initial residual = 1.885201244e-32, Final residual = 1.885201244e-32, No Iterations 0
Coupled system: p, U
Petsc:preonly:lu: Solving coupled for p, Initial residual = 1, Final residual = 1, No Iterations 1
Petsc:preonly:lu: Solving coupled for Uz, Initial residual = 1, Final residual = 1, No Iterations 1
time step continuity errors : sum local = 0.02067661187, global = -0.02067661187, cumulative = -1.571422502
ExecutionTime = 0.25 s  ClockTime = 4 s

Courant Number mean: 0.01033830593 max: 0.25
Time = 1.54

Inner iteration:  0

DILUPBiCG:  Solving for thetaxx, Initial residual = 2.438124385e-11, Final residual = 2.438124385e-11, No Iterations 0
DILUPBiCG:  Solving for thetaxy, Initial residual = 1.423713506e-36, Final residual = 1.423713506e-36, No Iterations 0
DILUPBiCG:  Solving for thetayy, Initial residual = 9.545607595e-36, Final residual = 9.545607595e-36, No Iterations 0
DILUPBiCG:  Solving for thetazz, Initial residual = 1.83870845e-32, Final residual = 1.83870845e-32, No Iterations 0
Coupled system: p, U
Petsc:preonly:lu: Solving coupled for p, Initial residual = 1, Final residual = 1, No Iterations 1
Petsc:preonly:lu: Solving coupled for Uz, Initial residual = 1, Final residual = 1, No Iterations 1
time step continuity errors : sum local = 0.02067661187, global = -0.02067661187, cumulative = -1.592099114
ExecutionTime = 0.26 s  ClockTime = 4 s

Courant Number mean: 0.01033830593 max: 0.25
Time = 1.56

Inner iteration:  0

DILUPBiCG:  Solving for thetaxx, Initial residual = 2.438124385e-11, Final residual = 2.438124385e-11, No Iterations 0
DILUPBiCG:  Solving for thetaxy, Initial residual = 1.42371359e-36, Final residual = 1.42371359e-36, No Iterations 0
DILUPBiCG:  Solving for thetayy, Initial residual = 5.522552678e-36, Final residual = 5.522552678e-36, No Iterations 0
DILUPBiCG:  Solving for thetazz, Initial residual = 1.88010335e-32, Final residual = 1.88010335e-32, No Iterations 0
Coupled system: p, U
Petsc:preonly:lu: Solving coupled for p, Initial residual = 1, Final residual = 1, No Iterations 1
Petsc:preonly:lu: Solving coupled for Uz, Initial residual = 1, Final residual = 1, No Iterations 1
time step continuity errors : sum local = 0.02067661187, global = -0.02067661187, cumulative = -1.612775726
ExecutionTime = 0.26 s  ClockTime = 4 s

Courant Number mean: 0.01033830593 max: 0.25
Time = 1.58

Inner iteration:  0

DILUPBiCG:  Solving for thetaxx, Initial residual = 2.438124385e-11, Final residual = 2.438124385e-11, No Iterations 0
DILUPBiCG:  Solving for thetaxy, Initial residual = 1.423713476e-36, Final residual = 1.423713476e-36, No Iterations 0
DILUPBiCG:  Solving for thetayy, Initial residual = 7.528852804e-36, Final residual = 7.528852804e-36, No Iterations 0
DILUPBiCG:  Solving for thetazz, Initial residual = 1.914972946e-32, Final residual = 1.914972946e-32, No Iterations 0
Coupled system: p, U
Petsc:preonly:lu: Solving coupled for p, Initial residual = 1, Final residual = 1, No Iterations 1
Petsc:preonly:lu: Solving coupled for Uz, Initial residual = 1, Final residual = 1, No Iterations 1
time step continuity errors : sum local = 0.02067661187, global = -0.02067661187, cumulative = -1.633452337
ExecutionTime = 0.26 s  ClockTime = 4 s

Courant Number mean: 0.01033830593 max: 0.25
Time = 1.6

Inner iteration:  0

DILUPBiCG:  Solving for thetaxx, Initial residual = 2.438124385e-11, Final residual = 2.438124385e-11, No Iterations 0
[...]
DILUPBiCG:  Solving for thetazz, Initial residual = 1.756428439e-32, Final residual = 1.756428439e-32, No Iterations 0
Coupled system: p, U
Petsc:preonly:lu: Solving coupled for p, Initial residual = 1, Final residual = 1, No Iterations 1
Petsc:preonly:lu: Solving coupled for Uz, Initial residual = 1, Final residual = 1, No Iterations 1
time step continuity errors : sum local = 0.02067661187, global = -0.02067661187, cumulative = -15.07325005
ExecutionTime = 1.91 s  ClockTime = 6 s

Courant Number mean: 0.01033830593 max: 0.25
Time = 14.6

Inner iteration:  0

DILUPBiCG:  Solving for thetaxx, Initial residual = 2.438124385e-11, Final residual = 2.438124385e-11, No Iterations 0
DILUPBiCG:  Solving for thetaxy, Initial residual = 1.423713529e-36, Final residual = 1.423713529e-36, No Iterations 0
DILUPBiCG:  Solving for thetayy, Initial residual = 5.698788471e-36, Final residual = 5.698788471e-36, No Iterations 0
DILUPBiCG:  Solving for thetazz, Initial residual = 1.790992161e-32, Final residual = 1.790992161e-32, No Iterations 0
Coupled system: p, U
Petsc:preonly:lu: Solving coupled for p, Initial residual = 1, Final residual = 1, No Iterations 1
Petsc:preonly:lu: Solving coupled for Uz, Initial residual = 1, Final residual = 1, No Iterations 1
time step continuity errors : sum local = 0.02067661187, global = -0.02067661187, cumulative = -15.09392666
ExecutionTime = 1.91 s  ClockTime = 6 s

Courant Number mean: 0.01033830593 max: 0.25
Time = 14.62

Inner iteration:  0

DILUPBiCG:  Solving for thetaxx, Initial residual = 2.438124385e-11, Final residual = 2.438124385e-11, No Iterations 0
DILUPBiCG:  Solving for thetaxy, Initial residual = 1.4237134e-36, Final residual = 1.4237134e-36, No Iterations 0
DILUPBiCG:  Solving for thetayy, Initial residual = 8.880491722e-36, Final residual = 8.880491722e-36, No Iterations 0
DILUPBiCG:  Solving for thetazz, Initial residual = 1.782427699e-32, Final residual = 1.782427699e-32, No Iterations 0
Coupled system: p, U
Petsc:preonly:lu: Solving coupled for p, Initial residual = 1, Final residual = 1, No Iterations 1
Petsc:preonly:lu: Solving coupled for Uz, Initial residual = 1, Final residual = 1, No Iterations 1
time step continuity errors : sum local = 0.02067661187, global = -0.02067661187, cumulative = -15.11460327
ExecutionTime = 1.91 s  ClockTime = 6 s

Courant Number mean: 0.01033830593 max: 0.25
Time = 14.64

Inner iteration:  0

DILUPBiCG:  Solving for thetaxx, Initial residual = 2.438124385e-11, Final residual = 2.438124385e-11, No Iterations 0
DILUPBiCG:  Solving for thetaxy, Initial residual = 1.423713544e-36, Final residual = 1.423713544e-36, No Iterations 0
DILUPBiCG:  Solving for thetayy, Initial residual = 4.81063973e-36, Final residual = 4.81063973e-36, No Iterations 0
DILUPBiCG:  Solving for thetazz, Initial residual = 1.629286959e-32, Final residual = 1.629286959e-32, No Iterations 0
Coupled system: p, U
Petsc:preonly:lu: Solving coupled for p, Initial residual = 1, Final residual = 1, No Iterations 1
Petsc:preonly:lu: Solving coupled for Uz, Initial residual = 1, Final residual = 1, No Iterations 1
time step continuity errors : sum local = 0.02067661187, global = -0.02067661187, cumulative = -15.13527989
ExecutionTime = 1.91 s  ClockTime = 6 s

Courant Number mean: 0.01033830593 max: 0.25
Time = 14.66

Inner iteration:  0

DILUPBiCG:  Solving for thetaxx, Initial residual = 2.438124385e-11, Final residual = 2.438124385e-11, No Iterations 0
DILUPBiCG:  Solving for thetaxy, Initial residual = 1.423713339e-36, Final residual = 1.423713339e-36, No Iterations 0
DILUPBiCG:  Solving for thetayy, Initial residual = 8.884972293e-36, Final residual = 8.884972293e-36, No Iterations 0
DILUPBiCG:  Solving for thetazz, Initial residual = 1.860119605e-32, Final residual = 1.860119605e-32, No Iterations 0
Coupled system: p, U
Petsc:preonly:lu: Solving coupled for p, Initial residual = 1, Final residual = 1, No Iterations 1
Petsc:preonly:lu: Solving coupled for Uz, Initial residual = 1, Final residual = 1, No Iterations 1
time step continuity errors : sum local = 0.02067661187, global = -0.02067661187, cumulative = -15.1559565
ExecutionTime = 1.92 s  ClockTime = 6 s

Courant Number mean: 0.01033830593 max: 0.25
Time = 14.68

Inner iteration:  0

DILUPBiCG:  Solving for thetaxx, Initial residual = 2.438124385e-11, Final residual = 2.438124385e-11, No Iterations 0
DILUPBiCG:  Solving for thetaxy, Initial residual = 1.423713559e-36, Final residual = 1.423713559e-36, No Iterations 0
DILUPBiCG:  Solving for thetayy, Initial residual = 6.796030525e-36, Final residual = 6.796030525e-36, No Iterations 0
DILUPBiCG:  Solving for thetazz, Initial residual = 1.806591717e-32, Final residual = 1.806591717e-32, No Iterations 0
Coupled system: p, U
Petsc:preonly:lu: Solving coupled for p, Initial residual = 1, Final residual = 1, No Iterations 1
Petsc:preonly:lu: Solving coupled for Uz, Initial residual = 1, Final residual = 1, No Iterations 1
time step continuity errors : sum local = 0.02067661187, global = -0.02067661187, cumulative = -15.17663311
ExecutionTime = 1.92 s  ClockTime = 6 s

Courant Number mean: 0.01033830593 max: 0.25
Time = 14.7

Inner iteration:  0

DILUPBiCG:  Solving for thetaxx, Initial residual = 2.438124385e-11, Final residual = 2.438124385e-11, No Iterations 0
DILUPBiCG:  Solving for thetaxy, Initial residual = 1.423713521e-36, Final residual = 1.423713521e-36, No Iterations 0
DILUPBiCG:  Solving for thetayy, Initial residual = 8.677870345e-36, Final residual = 8.677870345e-36, No Iterations 0
DILUPBiCG:  Solving for thetazz, Initial residual = 1.749393345e-32, Final residual = 1.749393345e-32, No Iterations 0
Coupled system: p, U
Petsc:preonly:lu: Solving coupled for p, Initial residual = 1, Final residual = 1, No Iterations 1
Petsc:preonly:lu: Solving coupled for Uz, Initial residual = 1, Final residual = 1, No Iterations 1
time step continuity errors : sum local = 0.02067661187, global = -0.02067661187, cumulative = -15.19730972
ExecutionTime = 1.92 s  ClockTime = 6 s

Courant Number mean: 0.01033830593 max: 0.25
Time = 14.72

Inner iteration:  0

DILUPBiCG:  Solving for thetaxx, Initial residual = 2.438124385e-11, Final residual = 2.438124385e-11, No Iterations 0
DILUPBiCG:  Solving for thetaxy, Initial residual = 1.423713559e-36, Final residual = 1.423713559e-36, No Iterations 0
DILUPBiCG:  Solving for thetayy, Initial residual = 5.551427469e-36, Final residual = 5.551427469e-36, No Iterations 0
DILUPBiCG:  Solving for thetazz, Initial residual = 1.832998808e-32, Final residual = 1.832998808e-32, No Iterations 0
Coupled system: p, U
Petsc:preonly:lu: Solving coupled for p, Initial residual = 1, Final residual = 1, No Iterations 1
Petsc:preonly:lu: Solving coupled for Uz, Initial residual = 1, Final residual = 1, No Iterations 1
time step continuity errors : sum local = 0.02067661187, global = -0.02067661187, cumulative = -15.21798633
ExecutionTime = 1.92 s  ClockTime = 6 s

Courant Number mean: 0.01033830593 max: 0.25
Time = 14.74

Inner iteration:  0

DILUPBiCG:  Solving for thetaxx, Initial residual = 2.438124385e-11, Final residual = 2.438124385e-11, No Iterations 0
DILUPBiCG:  Solving for thetaxy, Initial residual = 1.423713552e-36, Final residual = 1.423713552e-36, No Iterations 0
DILUPBiCG:  Solving for thetayy, Initial residual = 8.669407044e-36, Final residual = 8.669407044e-36, No Iterations 0
DILUPBiCG:  Solving for thetazz, Initial residual = 1.607467973e-32, Final residual = 1.607467973e-32, No Iterations 0
Coupled system: p, U
Petsc:preonly:lu: Solving coupled for p, Initial residual = 1, Final residual = 1, No Iterations 1
Petsc:preonly:lu: Solving coupled for Uz, Initial residual = 1, Final residual = 1, No Iterations 1
time step continuity errors : sum local = 0.02067661187, global = -0.02067661187, cumulative = -15.23866295
ExecutionTime = 1.93 s  ClockTime = 6 s

Courant Number mean: 0.01033830593 max: 0.25
Time = 14.76

Inner iteration:  0

DILUPBiCG:  Solving for thetaxx, Initial residual = 2.438124385e-11, Final residual = 2.438124385e-11, No Iterations 0
DILUPBiCG:  Solving for thetaxy, Initial residual = 1.423713407e-36, Final residual = 1.423713407e-36, No Iterations 0
DILUPBiCG:  Solving for thetayy, Initial residual = 5.894440071e-36, Final residual = 5.894440071e-36, No Iterations 0
DILUPBiCG:  Solving for thetazz, Initial residual = 1.567704398e-32, Final residual = 1.567704398e-32, No Iterations 0
Coupled system: p, U
Petsc:preonly:lu: Solving coupled for p, Initial residual = 1, Final residual = 1, No Iterations 1
Petsc:preonly:lu: Solving coupled for Uz, Initial residual = 1, Final residual = 1, No Iterations 1
time step continuity errors : sum local = 0.02067661187, global = -0.02067661187, cumulative = -15.25933956
ExecutionTime = 1.93 s  ClockTime = 6 s

Courant Number mean: 0.01033830593 max: 0.25
Time = 14.78

Inner iteration:  0

DILUPBiCG:  Solving for thetaxx, Initial residual = 2.438124385e-11, Final residual = 2.438124385e-11, No Iterations 0
DILUPBiCG:  Solving for thetaxy, Initial residual = 1.423713233e-36, Final residual = 1.423713233e-36, No Iterations 0
DILUPBiCG:  Solving for thetayy, Initial residual = 8.630077587e-36, Final residual = 8.630077587e-36, No Iterations 0
DILUPBiCG:  Solving for thetazz, Initial residual = 1.411912754e-32, Final residual = 1.411912754e-32, No Iterations 0
Coupled system: p, U
Petsc:preonly:lu: Solving coupled for p, Initial residual = 1, Final residual = 1, No Iterations 1
Petsc:preonly:lu: Solving coupled for Uz, Initial residual = 1, Final residual = 1, No Iterations 1
time step continuity errors : sum local = 0.02067661187, global = -0.02067661187, cumulative = -15.28001617
ExecutionTime = 1.93 s  ClockTime = 6 s

Courant Number mean: 0.01033830593 max: 0.25
Time = 14.8

Inner iteration:  0

DILUPBiCG:  Solving for thetaxx, Initial residual = 2.438124385e-11, Final residual = 2.438124385e-11, No Iterations 0
DILUPBiCG:  Solving for thetaxy, Initial residual = 1.423713483e-36, Final residual = 1.423713483e-36, No Iterations 0
DILUPBiCG:  Solving for thetayy, Initial residual = 5.912362355e-36, Final residual = 5.912362355e-36, No Iterations 0
DILUPBiCG:  Solving for thetazz, Initial residual = 1.860935268e-32, Final residual = 1.860935268e-32, No Iterations 0
Coupled system: p, U
Petsc:preonly:lu: Solving coupled for p, Initial residual = 1, Final residual = 1, No Iterations 1
Petsc:preonly:lu: Solving coupled for Uz, Initial residual = 1, Final residual = 1, No Iterations 1
time step continuity errors : sum local = 0.02067661187, global = -0.02067661187, cumulative = -15.30069278
ExecutionTime = 1.93 s  ClockTime = 6 s

Courant Number mean: 0.01033830593 max: 0.25
Time = 14.82

Inner iteration:  0

DILUPBiCG:  Solving for thetaxx, Initial residual = 2.438124385e-11, Final residual = 2.438124385e-11, No Iterations 0
DILUPBiCG:  Solving for thetaxy, Initial residual = 1.423713521e-36, Final residual = 1.423713521e-36, No Iterations 0
DILUPBiCG:  Solving for thetayy, Initial residual = 8.94073051e-36, Final residual = 8.94073051e-36, No Iterations 0
DILUPBiCG:  Solving for thetazz, Initial residual = 1.822599104e-32, Final residual = 1.822599104e-32, No Iterations 0
Coupled system: p, U
Petsc:preonly:lu: Solving coupled for p, Initial residual = 1, Final residual = 1, No Iterations 1
Petsc:preonly:lu: Solving coupled for Uz, Initial residual = 1, Final residual = 1, No Iterations 1
time step continuity errors : sum local = 0.02067661187, global = -0.02067661187, cumulative = -15.32136939
ExecutionTime = 1.94 s  ClockTime = 6 s

Courant Number mean: 0.01033830593 max: 0.25
Time = 14.84

Inner iteration:  0

DILUPBiCG:  Solving for thetaxx, Initial residual = 2.438124385e-11, Final residual = 2.438124385e-11, No Iterations 0
DILUPBiCG:  Solving for thetaxy, Initial residual = 1.423713407e-36, Final residual = 1.423713407e-36, No Iterations 0
DILUPBiCG:  Solving for thetayy, Initial residual = 6.714882405e-36, Final residual = 6.714882405e-36, No Iterations 0
DILUPBiCG:  Solving for thetazz, Initial residual = 1.815462052e-32, Final residual = 1.815462052e-32, No Iterations 0
Coupled system: p, U
Petsc:preonly:lu: Solving coupled for p, Initial residual = 1, Final residual = 1, No Iterations 1
Petsc:preonly:lu: Solving coupled for Uz, Initial residual = 1, Final residual = 1, No Iterations 1
time step continuity errors : sum local = 0.02067661187, global = -0.02067661187, cumulative = -15.34204601
ExecutionTime = 1.94 s  ClockTime = 6 s

Courant Number mean: 0.01033830593 max: 0.25
Time = 14.86

Inner iteration:  0

DILUPBiCG:  Solving for thetaxx, Initial residual = 2.438124385e-11, Final residual = 2.438124385e-11, No Iterations 0
DILUPBiCG:  Solving for thetaxy, Initial residual = 1.423713309e-36, Final residual = 1.423713309e-36, No Iterations 0
DILUPBiCG:  Solving for thetayy, Initial residual = 1.000411936e-35, Final residual = 1.000411936e-35, No Iterations 0
DILUPBiCG:  Solving for thetazz, Initial residual = 1.897028358e-32, Final residual = 1.897028358e-32, No Iterations 0
Coupled system: p, U
Petsc:preonly:lu: Solving coupled for p, Initial residual = 1, Final residual = 1, No Iterations 1
Petsc:preonly:lu: Solving coupled for Uz, Initial residual = 1, Final residual = 1, No Iterations 1
time step continuity errors : sum local = 0.02067661187, global = -0.02067661187, cumulative = -15.36272262
ExecutionTime = 1.94 s  ClockTime = 6 s

Courant Number mean: 0.01033830593 max: 0.25
Time = 14.88

Inner iteration:  0

DILUPBiCG:  Solving for thetaxx, Initial residual = 2.438124385e-11, Final residual = 2.438124385e-11, No Iterations 0
DILUPBiCG:  Solving for thetaxy, Initial residual = 1.423713635e-36, Final residual = 1.423713635e-36, No Iterations 0
DILUPBiCG:  Solving for thetayy, Initial residual = 5.631082065e-36, Final residual = 5.631082065e-36, No Iterations 0
DILUPBiCG:  Solving for thetazz, Initial residual = 1.499290659e-32, Final residual = 1.499290659e-32, No Iterations 0
Coupled system: p, U
Petsc:preonly:lu: Solving coupled for p, Initial residual = 1, Final residual = 1, No Iterations 1
Petsc:preonly:lu: Solving coupled for Uz, Initial residual = 1, Final residual = 1, No Iterations 1
time step continuity errors : sum local = 0.02067661187, global = -0.02067661187, cumulative = -15.38339923
ExecutionTime = 1.94 s  ClockTime = 6 s

Courant Number mean: 0.01033830593 max: 0.25
Time = 14.9

Inner iteration:  0

DILUPBiCG:  Solving for thetaxx, Initial residual = 2.438124385e-11, Final residual = 2.438124385e-11, No Iterations 0
DILUPBiCG:  Solving for thetaxy, Initial residual = 1.423713339e-36, Final residual = 1.423713339e-36, No Iterations 0
DILUPBiCG:  Solving for thetayy, Initial residual = 8.267649178e-36, Final residual = 8.267649178e-36, No Iterations 0
DILUPBiCG:  Solving for thetazz, Initial residual = 1.879899434e-32, Final residual = 1.879899434e-32, No Iterations 0
Coupled system: p, U
Petsc:preonly:lu: Solving coupled for p, Initial residual = 1, Final residual = 1, No Iterations 1
Petsc:preonly:lu: Solving coupled for Uz, Initial residual = 1, Final residual = 1, No Iterations 1
time step continuity errors : sum local = 0.02067661187, global = -0.02067661187, cumulative = -15.40407584
ExecutionTime = 1.95 s  ClockTime = 6 s

Courant Number mean: 0.01033830593 max: 0.25
Time = 14.92

Inner iteration:  0

DILUPBiCG:  Solving for thetaxx, Initial residual = 2.438124385e-11, Final residual = 2.438124385e-11, No Iterations 0
DILUPBiCG:  Solving for thetaxy, Initial residual = 1.423713681e-36, Final residual = 1.423713681e-36, No Iterations 0
DILUPBiCG:  Solving for thetayy, Initial residual = 6.889126833e-36, Final residual = 6.889126833e-36, No Iterations 0
DILUPBiCG:  Solving for thetazz, Initial residual = 1.680877648e-32, Final residual = 1.680877648e-32, No Iterations 0
Coupled system: p, U
Petsc:preonly:lu: Solving coupled for p, Initial residual = 1, Final residual = 1, No Iterations 1
Petsc:preonly:lu: Solving coupled for Uz, Initial residual = 1, Final residual = 1, No Iterations 1
time step continuity errors : sum local = 0.02067661187, global = -0.02067661187, cumulative = -15.42475245
ExecutionTime = 1.95 s  ClockTime = 6 s

Courant Number mean: 0.01033830593 max: 0.25
Time = 14.94

Inner iteration:  0

DILUPBiCG:  Solving for thetaxx, Initial residual = 2.438124385e-11, Final residual = 2.438124385e-11, No Iterations 0
DILUPBiCG:  Solving for thetaxy, Initial residual = 1.423713233e-36, Final residual = 1.423713233e-36, No Iterations 0
DILUPBiCG:  Solving for thetayy, Initial residual = 8.540466167e-36, Final residual = 8.540466167e-36, No Iterations 0
DILUPBiCG:  Solving for thetazz, Initial residual = 1.695559583e-32, Final residual = 1.695559583e-32, No Iterations 0
Coupled system: p, U
Petsc:preonly:lu: Solving coupled for p, Initial residual = 1, Final residual = 1, No Iterations 1
Petsc:preonly:lu: Solving coupled for Uz, Initial residual = 1, Final residual = 1, No Iterations 1
time step continuity errors : sum local = 0.02067661187, global = -0.02067661187, cumulative = -15.44542906
ExecutionTime = 1.95 s  ClockTime = 6 s

Courant Number mean: 0.01033830593 max: 0.25
Time = 14.96

Inner iteration:  0

DILUPBiCG:  Solving for thetaxx, Initial residual = 2.438124385e-11, Final residual = 2.438124385e-11, No Iterations 0
DILUPBiCG:  Solving for thetaxy, Initial residual = 1.423713529e-36, Final residual = 1.423713529e-36, No Iterations 0
DILUPBiCG:  Solving for thetayy, Initial residual = 5.639047524e-36, Final residual = 5.639047524e-36, No Iterations 0
DILUPBiCG:  Solving for thetazz, Initial residual = 1.691583225e-32, Final residual = 1.691583225e-32, No Iterations 0
Coupled system: p, U
Petsc:preonly:lu: Solving coupled for p, Initial residual = 1, Final residual = 1, No Iterations 1
Petsc:preonly:lu: Solving coupled for Uz, Initial residual = 1, Final residual = 1, No Iterations 1
time step continuity errors : sum local = 0.02067661187, global = -0.02067661187, cumulative = -15.46610568
ExecutionTime = 1.95 s  ClockTime = 6 s

Courant Number mean: 0.01033830593 max: 0.25
Time = 14.98

Inner iteration:  0

DILUPBiCG:  Solving for thetaxx, Initial residual = 2.438124385e-11, Final residual = 2.438124385e-11, No Iterations 0
DILUPBiCG:  Solving for thetaxy, Initial residual = 1.4237134e-36, Final residual = 1.4237134e-36, No Iterations 0
DILUPBiCG:  Solving for thetayy, Initial residual = 8.763499035e-36, Final residual = 8.763499035e-36, No Iterations 0
DILUPBiCG:  Solving for thetazz, Initial residual = 1.741542588e-32, Final residual = 1.741542588e-32, No Iterations 0
Coupled system: p, U
Petsc:preonly:lu: Solving coupled for p, Initial residual = 1, Final residual = 1, No Iterations 1
Petsc:preonly:lu: Solving coupled for Uz, Initial residual = 1, Final residual = 1, No Iterations 1
time step continuity errors : sum local = 0.02067661187, global = -0.02067661187, cumulative = -15.48678229
ExecutionTime = 1.96 s  ClockTime = 6 s

Courant Number mean: 0.01033830593 max: 0.25
Time = 15

Inner iteration:  0

DILUPBiCG:  Solving for thetaxx, Initial residual = 2.438124385e-11, Final residual = 2.438124385e-11, No Iterations 0
DILUPBiCG:  Solving for thetaxy, Initial residual = 1.423713574e-36, Final residual = 1.423713574e-36, No Iterations 0
DILUPBiCG:  Solving for thetayy, Initial residual = 5.669415839e-36, Final residual = 5.669415839e-36, No Iterations 0
DILUPBiCG:  Solving for thetazz, Initial residual = 1.658242998e-32, Final residual = 1.658242998e-32, No Iterations 0
Coupled system: p, U
Petsc:preonly:lu: Solving coupled for p, Initial residual = 1, Final residual = 1, No Iterations 1
Petsc:preonly:lu: Solving coupled for Uz, Initial residual = 1, Final residual = 1, No Iterations 1
time step continuity errors : sum local = 0.02067661187, global = -0.02067661187, cumulative = -15.5074589
ExecutionTime = 1.96 s  ClockTime = 6 s

End

